
 Fire Dynamics Simulator

 Current Date     : December 16, 2024  10:02:23
 Revision         : FDS-6.9.1-0-g889da6a-release
 Revision Date    : Sun Apr 7 17:05:06 2024 -0400
 Compiler         : Intel(R) Fortran Intel(R) 64 Compiler Classic for applications running on Intel(R) 64, Version 2021.7.1 Build 20221019_000000
 Compilation Date : Apr 09, 2024 13:24:51

 Number of MPI Processes:  1

 MPI version: 3.1
 MPI library version: Intel(R) MPI Library 2021.6 for Linux* OS


 Job TITLE        : Fixed Burner Simulation
 Job ID string    : fixed_burner


 Grid Dimensions, Mesh     1

   Cells in the X Direction            10
   Cells in the Y Direction            10
   Cells in the Z Direction            15
   Number of Grid Cells              1500


 Physical Dimensions, Mesh     1

   Length (m)                       1.000
   Width  (m)                       1.000
   Height (m)                       1.500

 Grid Dimensions, Mesh     2

   Cells in the X Direction            10
   Cells in the Y Direction            10
   Cells in the Z Direction            15
   Number of Grid Cells              1500


 Physical Dimensions, Mesh     2

   Length (m)                       1.000
   Width  (m)                       1.000
   Height (m)                       1.500

 Grid Dimensions, Mesh     3

   Cells in the X Direction            10
   Cells in the Y Direction            10
   Cells in the Z Direction            15
   Number of Grid Cells              1500


 Physical Dimensions, Mesh     3

   Length (m)                       1.000
   Width  (m)                       1.000
   Height (m)                       1.500

 Grid Dimensions, Mesh     4

   Cells in the X Direction            10
   Cells in the Y Direction            10
   Cells in the Z Direction            15
   Number of Grid Cells              1500


 Physical Dimensions, Mesh     4

   Length (m)                       1.000
   Width  (m)                       1.000
   Height (m)                       1.500

 Miscellaneous Parameters

   Total Number of Grid Cells        6000
   Maximum Cell Aspect Ratio        1.000
   Initial Time Step (s)            0.130
   CFL Velocity Norm                    2
   Simulation Start Time (s)          0.0
   Simulation End Time (s)           55.0
   Background Pressure (Pa)     101325.00
   Ambient Temperature (C)          20.00

   3D Cartesian
   VLES Calculation
   Eddy Viscosity Model:  Deardorff (C_DEARDORFF = 0.10)
   Surface INERT Eddy Viscosity Model:  WALE (C_WALE = 0.60)
   Surface BURNER_0_0 Eddy Viscosity Model:  WALE (C_WALE = 0.60)
   Surface BURNER_0_1 Eddy Viscosity Model:  WALE (C_WALE = 0.60)
   Surface BURNER_1_0 Eddy Viscosity Model:  WALE (C_WALE = 0.60)
   Surface BURNER_1_1 Eddy Viscosity Model:  WALE (C_WALE = 0.60)
   Turbulent Prandtl Number:         0.50
   Turbulent Schmidt Number:         0.50


 Pressure solver information

   Solver:                            FFT
   Velocity tolerance (m/s):    5.000E-02
   Press eqn res tol (1/s^2):   2.000E+03
   Max pressure iterations:            10


 Background Stratification

      Z (m)     P_0 (Pa)    TMP_0 (C)
   ------------------------------------
        1.45    101308.00     20.00
        1.35    101309.17     20.00
        1.25    101310.34     20.00
        1.15    101311.52     20.00
        1.05    101312.69     20.00
        0.95    101313.86     20.00
        0.85    101315.03     20.00
        0.75    101316.21     20.00
        0.65    101317.38     20.00
        0.55    101318.55     20.00
        0.45    101319.72     20.00
        0.35    101320.89     20.00
        0.25    101322.07     20.00
        0.15    101323.24     20.00
        0.05    101324.41     20.00


 Mass Fraction Transformation Matrix to Convert Species Mixtures (Columns) to Primitive Species (Rows)

                         AIR       CELLULOS  PRODUCTS
   NITROGEN              0.762470  0.000000  0.637772
   OXYGEN                0.230997  0.000000  0.000000
   CARBON DIOXIDE        0.000591  0.000000  0.266238
   WATER VAPOR           0.005941  0.000000  0.095826
   CARBON MONOXIDE       0.000000  0.000000  0.000000
   SOOT                  0.000000  0.000000  0.000164
   HYDROGEN              0.000000  0.000000  0.000000
   HYDROGEN CYANIDE      0.000000  0.000000  0.000000
   CELLULOSE             0.000000  1.000000  0.000000


 Primitive Species Information

   NITROGEN
   Gas Species
   Molecular Weight (g/mol)                28.01340
   Ambient Density (kg/m^3)                1.165
           Enthalpy of Formation (J/kg)  0.000E+00

   OXYGEN
   Gas Species
   Molecular Weight (g/mol)                31.99880
   Ambient Density (kg/m^3)                1.330
           Enthalpy of Formation (J/kg)  0.000E+00

   CARBON DIOXIDE
   Gas Species
   Molecular Weight (g/mol)                44.00950
   Ambient Density (kg/m^3)                1.830
           Enthalpy of Formation (J/kg) -8.941E+06

   WATER VAPOR
   Gas Species
   Molecular Weight (g/mol)                18.01528
   Ambient Density (kg/m^3)                0.749
           Enthalpy of Formation (J/kg) -1.342E+07

   CARBON MONOXIDE
   Gas Species
   Molecular Weight (g/mol)                28.01010
   Ambient Density (kg/m^3)                1.164
           Enthalpy of Formation (J/kg) -3.946E+06

   SOOT
   Gas Species
   Molecular Weight (g/mol)                12.01070
   Ambient Density (kg/m^3)                0.499
           Enthalpy of Formation (J/kg)  0.000E+00

   HYDROGEN
   Gas Species
   Molecular Weight (g/mol)                 2.01588
   Ambient Density (kg/m^3)                0.084
           Enthalpy of Formation (J/kg)  0.000E+00

   HYDROGEN CYANIDE
   Gas Species
   Molecular Weight (g/mol)                27.02534
   Ambient Density (kg/m^3)                1.123
           Enthalpy of Formation (J/kg)  4.924E+06

   CELLULOSE
   Gas Species
   Molecular Weight (g/mol)               162.14060
   Ambient Density (kg/m^3)                6.740
   Assumed Enthalpy of Formation (J/kg) -6.509E+06


 Tracked (Lumped) Species Information

   AIR
   Molecular Weight (g/mol)            28.75198
   Ambient Density (kg/m^3)            1.195
   Initial Mass Fraction               1.000
   Enthalpy of Formation (J/kg)     -8.504E+04

   Sub Species                    Mass Fraction     Mole Fraction
   NITROGEN                       7.624699E-01      7.825727E-01
   OXYGEN                         2.309974E-01      2.075588E-01
   CARBON DIOXIDE                 5.914650E-04      3.864118E-04
   WATER VAPOR                    5.941209E-03      9.482037E-03
 
     Viscosity (kg/m/s) Ambient,  293 K:  1.796E-05
                                  500 K:  2.612E-05
                                 1000 K:  4.125E-05
                                 1500 K:  5.371E-05
                                 2000 K:  6.476E-05
   Therm. Cond. (W/m/K) Ambient,  293 K:  2.556E-02
                                  500 K:  3.814E-02
                                 1000 K:  6.686E-02
                                 1500 K:  9.249E-02
                                 2000 K:  1.153E-01
        Enthalpy (J/kg) Ambient,  293 K: -9.012E+04
                                  500 K:  1.222E+05
                                 1000 K:  6.721E+05
                                 1500 K:  1.270E+06
                                 2000 K:  1.896E+06
    Spec. Heat (J/kg/K) Ambient,  293 K:  1.016E+03
                                  500 K:  1.042E+03
                                 1000 K:  1.156E+03
                                 1500 K:  1.229E+03
                                 2000 K:  1.270E+03
   Diff. Coeff. (m^2/s) Ambient,  293 K:  1.991E-05
                                  500 K:  4.961E-05
                                 1000 K:  1.580E-04
                                 1500 K:  3.095E-04
                                 2000 K:  4.984E-04
 Gibbs Energy Amb. (kJ/mol),  293 K: -5.873E+01
                                  500 K: -1.007E+02
                                 1000 K: -2.117E+02
                                 1500 K: -3.312E+02
                                 2000 K: -4.568E+02

   CELLULOSE
   Molecular Weight (g/mol)           162.14060
   Ambient Density (kg/m^3)            6.740
   Initial Mass Fraction               0.000
   Enthalpy of Formation (J/kg)     -6.509E+06

   Sub Species                    Mass Fraction     Mole Fraction
   CELLULOSE                      1.000000E+00      1.000000E+00
 
     Viscosity (kg/m/s) Ambient,  293 K:  4.186E-05
                                  500 K:  6.043E-05
                                 1000 K:  9.499E-05
                                 1500 K:  1.236E-04
                                 2000 K:  1.489E-04
   Therm. Cond. (W/m/K) Ambient,  293 K:  1.058E-02
                                  500 K:  1.528E-02
                                 1000 K:  2.401E-02
                                 1500 K:  3.124E-02
                                 2000 K:  3.765E-02
        Enthalpy (J/kg) Ambient,  293 K:  5.261E+04
                                  500 K:  8.974E+04
                                 1000 K:  1.795E+05
                                 1500 K:  2.692E+05
                                 2000 K:  3.590E+05
    Spec. Heat (J/kg/K) Ambient,  293 K:  1.795E+02
                                  500 K:  1.795E+02
                                 1000 K:  1.795E+02
                                 1500 K:  1.795E+02
                                 2000 K:  1.795E+02
   Diff. Coeff. (m^2/s) Ambient,  293 K:  1.521E-05
                                  500 K:  3.779E-05
                                 1000 K:  1.201E-04
                                 1500 K:  2.351E-04
                                 2000 K:  3.786E-04

   PRODUCTS
   Molecular Weight (g/mol)            29.28343
   Ambient Density (kg/m^3)            1.217
   Initial Mass Fraction               0.000
   Enthalpy of Formation (J/kg)     -3.667E+06

   Sub Species                    Mass Fraction     Mole Fraction
   NITROGEN                       6.377724E-01      6.666867E-01
   CARBON DIOXIDE                 2.662383E-01      1.771520E-01
   WATER VAPOR                    9.582572E-02      1.557625E-01
   CARBON MONOXIDE                0.000000E+00      0.000000E+00
   SOOT                           1.635442E-04      3.987390E-04
   HYDROGEN CYANIDE               0.000000E+00      0.000000E+00
 
     Viscosity (kg/m/s) Ambient,  293 K:  1.599E-05
                                  500 K:  2.384E-05
                                 1000 K:  3.896E-05
                                 1500 K:  5.145E-05
                                 2000 K:  6.245E-05
   Therm. Cond. (W/m/K) Ambient,  293 K:  2.281E-02
                                  500 K:  3.578E-02
                                 1000 K:  6.692E-02
                                 1500 K:  9.594E-02
                                 2000 K:  1.219E-01
        Enthalpy (J/kg) Ambient,  293 K: -3.672E+06
                                  500 K: -3.445E+06
                                 1000 K: -2.838E+06
                                 1500 K: -2.162E+06
                                 2000 K: -1.447E+06
    Spec. Heat (J/kg/K) Ambient,  293 K:  1.065E+03
                                  500 K:  1.131E+03
                                 1000 K:  1.293E+03
                                 1500 K:  1.398E+03
                                 2000 K:  1.460E+03
   Diff. Coeff. (m^2/s) Ambient,  293 K:  1.920E-05
                                  500 K:  4.880E-05
                                 1000 K:  1.577E-04
                                 1500 K:  3.101E-04
                                 2000 K:  5.002E-04
 Gibbs Energy Amb. (kJ/mol),  293 K: -1.857E+02
                                  500 K: -2.284E+02
                                 1000 K: -3.424E+02
                                 1500 K: -4.665E+02
                                 2000 K: -5.978E+02


 Gas Phase Reaction Information

      Fuel                                           Heat of Combustion (kJ/kg)
      CELLULOSE                                                      15476.9800
      EPUMO2:                                                        13100.0000

      Primitive Species Stoich. Coeff.
      Species ID                                                          Molar
      NITROGEN                                                        -0.000000
      OXYGEN                                                          -5.986500
      CARBON DIOXIDE                                                   5.986500
      WATER VAPOR                                                      5.000000
      SOOT                                                             0.013500
      CELLULOSE                                                       -1.000000

      Tracked (Lumped) Species Stoich. Coeff.
      Species ID                                             Molar         Mass
      AIR                                               -28.842428    -5.114555
      CELLULOSE                                          -1.000000    -1.000000
      PRODUCTS                                           33.855927     6.114555

      Reaction Kinetics

      Fast chemistry

      ODE Solver:  EXPLICIT EULER

      Extinction Model:  EXTINCTION 1
      Auto-Ignition Temperature (C):            -273.1
      Critical Flame Temperature (C):           1427.0

      Prescribed Radiative Fraction:             0.350


 Material Information


 Surface Conditions

   0 INERT (DEFAULT)

   1 BURNER_0_0
     HRR Per Unit Area (kW/m2)        317.0
     CELLULOSE Mass Flux (kg/s/m2)   2.048E-02

   2 BURNER_0_1
     HRR Per Unit Area (kW/m2)        374.9
     CELLULOSE Mass Flux (kg/s/m2)   2.422E-02

   3 BURNER_1_0
     HRR Per Unit Area (kW/m2)        387.4
     CELLULOSE Mass Flux (kg/s/m2)   2.503E-02

   4 BURNER_1_1
     HRR Per Unit Area (kW/m2)        354.5
     CELLULOSE Mass Flux (kg/s/m2)   2.291E-02

   5 OPEN
     Passive Vent to Atmosphere

   6 MIRROR
     Symmetry Plane

   7 INTERPOLATED

   8 PERIODIC

   9 HVAC

  10 MASSLESS TRACER

  11 DROPLET

  12 MASSLESS TARGET

  13 PERIODIC FLOW ONLY


 Lagrangian Particle Classes


 Cut-off Density and Temperature

    Minimum Temperature:  -259.1 C
    Maximum Temperature:  2726.8 C
    Minimum Density:  1.195E-01 kg/m3
    Maximum Density:  2.823E+02 kg/m3


 Slice File Information, Mesh     1

   1 Nodes:   0  10   0  10   1   1, Quantity: HRRPUV
   2 Nodes:   0  10   0  10   1   1, Quantity: TEMPERATURE


 Slice File Information, Mesh     2

   1 Nodes:   0  10   0  10   1   1, Quantity: HRRPUV
   2 Nodes:   0  10   0  10   1   1, Quantity: TEMPERATURE


 Slice File Information, Mesh     3

   1 Nodes:   0  10   5   5   0  15, Quantity: TEMPERATURE
   2 Nodes:   0  10   5   5   0  15, Quantity: U-VELOCITY
   3 Nodes:   0  10   5   5   0  15, Quantity: V-VELOCITY
   4 Nodes:   0  10   5   5   0  15, Quantity: W-VELOCITY
   5 Nodes:   0  10   5   5   0  15, Quantity: VELOCITY
   6 Nodes:   0  10   5   5   0  15, Quantity: U-VELOCITY
   7 Nodes:   0  10   5   5   0  15, Quantity: V-VELOCITY
   8 Nodes:   0  10   5   5   0  15, Quantity: W-VELOCITY
   9 Nodes:   0  10   0  10   1   1, Quantity: HRRPUV
  10 Nodes:   0  10   5   5   0  15, Quantity: HRRPUV
  11 Nodes:   0  10   0  10   1   1, Quantity: TEMPERATURE


 Slice File Information, Mesh     4

   1 Nodes:   0  10   5   5   0  15, Quantity: TEMPERATURE
   2 Nodes:   0  10   5   5   0  15, Quantity: U-VELOCITY
   3 Nodes:   0  10   5   5   0  15, Quantity: V-VELOCITY
   4 Nodes:   0  10   5   5   0  15, Quantity: W-VELOCITY
   5 Nodes:   0  10   5   5   0  15, Quantity: VELOCITY
   6 Nodes:   0  10   5   5   0  15, Quantity: U-VELOCITY
   7 Nodes:   0  10   5   5   0  15, Quantity: V-VELOCITY
   8 Nodes:   0  10   5   5   0  15, Quantity: W-VELOCITY
   9 Nodes:   0  10   0  10   1   1, Quantity: HRRPUV
  10 Nodes:   0  10   5   5   0  15, Quantity: HRRPUV
  11 Nodes:   0  10   0  10   1   1, Quantity: TEMPERATURE


 Boundary File Information

   1 Quantity: RADIATIVE HEAT FLUX
   2 Quantity: WALL TEMPERATURE
   3 Quantity: TOTAL HEAT FLUX


 Radiation Model Information

   Number of control angles  104
   Time step increment         3
   Angle increment             5
   Theta band N_phi   Solid angle
     1:        4     0.120
     2:       12     0.114
     3:       16     0.127
     4:       20     0.120
     5:       20     0.120
     6:       16     0.127
     7:       12     0.114
     8:        4     0.120
   Using gray gas absorption.
   Mean beam length  1.000E-01 m
 
 

 Run Time Diagnostics

       Time Step        1   December 16, 2024  10:02:23
       Step Size:    0.130E+00 s, Total Time:       0.13 s
       Pressure Iterations: 1
       Maximum Velocity Error:  0.15E-03 on Mesh 2 at (7,10,7)
       Maximum Pressure Error:  0.92E-07 on Mesh 1 at (6,6,6)
       ---------------------------------------------------------------
       Mesh    1
       Max CFL number:  0.29E-01 at (3,3,10)
       Max divergence:  0.12E-05 at (2,4,2)
       Min divergence: -0.99E-06 at (4,3,12)
       Max VN number:   0.18E-01 at (7,4,13)
       Mesh    2
       Max CFL number:  0.29E-01 at (5,6,9)
       Max divergence:  0.18E-05 at (7,2,2)
       Min divergence: -0.10E-05 at (8,3,13)
       Max VN number:   0.24E-01 at (7,8,1)
       Mesh    3
       Max CFL number:  0.29E-01 at (6,9,12)
       Max divergence:  0.15E-05 at (9,6,2)
       Min divergence: -0.96E-06 at (8,2,6)
       Max VN number:   0.21E-01 at (7,9,1)
       Mesh    4
       Max CFL number:  0.30E-01 at (7,3,13)
       Max divergence:  0.19E-05 at (3,5,2)
       Min divergence: -0.95E-06 at (8,9,9)
       Max VN number:   0.18E-01 at (4,3,8)
 
       Time Step        2   December 16, 2024  10:02:23
       Step Size:    0.130E+00 s, Total Time:       0.26 s
       Pressure Iterations: 1
       Maximum Velocity Error:  0.91E-04 on Mesh 2 at (7,10,7)
       Maximum Pressure Error:  0.23E-07 on Mesh 2 at (8,10,8)
       ---------------------------------------------------------------
       Mesh    1
       Max CFL number:  0.29E-01 at (3,3,10)
       Max divergence:  0.12E-05 at (2,4,2)
       Min divergence: -0.99E-06 at (4,3,12)
       Max VN number:   0.18E-01 at (7,4,13)
       Mesh    2
       Max CFL number:  0.29E-01 at (5,6,9)
       Max divergence:  0.18E-05 at (7,2,2)
       Min divergence: -0.10E-05 at (8,3,13)
       Max VN number:   0.24E-01 at (7,8,1)
       Mesh    3
       Max CFL number:  0.29E-01 at (6,9,12)
       Max divergence:  0.15E-05 at (9,6,2)
       Min divergence: -0.96E-06 at (8,2,6)
       Max VN number:   0.21E-01 at (7,9,1)
       Mesh    4
       Max CFL number:  0.29E-01 at (9,3,8)
       Max divergence:  0.19E-05 at (3,5,2)
       Min divergence: -0.94E-06 at (8,9,9)
       Max VN number:   0.17E-01 at (4,3,8)
 
       Time Step        3   December 16, 2024  10:02:23
       Step Size:    0.130E+00 s, Total Time:       0.39 s
       Pressure Iterations: 1
       Maximum Velocity Error:  0.30E-04 on Mesh 2 at (6,10,7)
       Maximum Pressure Error:  0.17E-07 on Mesh 1 at (7,4,15)
       ---------------------------------------------------------------
       Mesh    1
       Max CFL number:  0.28E-01 at (3,3,10)
       Max divergence:  0.12E-05 at (2,4,2)
       Min divergence: -0.99E-06 at (4,3,12)
       Max VN number:   0.17E-01 at (7,4,13)
       Mesh    2
       Max CFL number:  0.29E-01 at (5,6,9)
       Max divergence:  0.18E-05 at (7,2,2)
       Min divergence: -0.10E-05 at (8,3,13)
       Max VN number:   0.24E-01 at (7,8,1)
       Mesh    3
       Max CFL number:  0.29E-01 at (6,9,12)
       Max divergence:  0.15E-05 at (9,6,2)
       Min divergence: -0.96E-06 at (8,2,6)
       Max VN number:   0.21E-01 at (7,9,1)
       Mesh    4
       Max CFL number:  0.29E-01 at (9,3,8)
       Max divergence:  0.19E-05 at (3,5,2)
       Min divergence: -0.94E-06 at (8,9,9)
       Max VN number:   0.17E-01 at (4,3,8)
 
       Time Step        4   December 16, 2024  10:02:23
       Step Size:    0.130E+00 s, Total Time:       0.52 s
       Pressure Iterations: 1
       Maximum Velocity Error:  0.27E-04 on Mesh 2 at (8,10,9)
       Maximum Pressure Error:  0.18E-07 on Mesh 2 at (6,5,15)
       ---------------------------------------------------------------
       Mesh    1
       Max CFL number:  0.28E-01 at (3,3,10)
       Max divergence:  0.12E-05 at (2,4,2)
       Min divergence: -0.99E-06 at (4,3,12)
       Max VN number:   0.17E-01 at (7,4,13)
       Mesh    2
       Max CFL number:  0.29E-01 at (5,6,9)
       Max divergence:  0.18E-05 at (7,2,2)
       Min divergence: -0.10E-05 at (8,3,13)
       Max VN number:   0.25E-01 at (7,8,1)
       Mesh    3
       Max CFL number:  0.28E-01 at (6,9,12)
       Max divergence:  0.15E-05 at (9,6,2)
       Min divergence: -0.96E-06 at (8,2,6)
       Max VN number:   0.21E-01 at (7,9,1)
       Mesh    4
       Max CFL number:  0.29E-01 at (9,3,8)
       Max divergence:  0.19E-05 at (3,5,2)
       Min divergence: -0.94E-06 at (8,9,9)
       Max VN number:   0.17E-01 at (4,3,8)
 
       Time Step        5   December 16, 2024  10:02:23
       Step Size:    0.130E+00 s, Total Time:       0.65 s
       Pressure Iterations: 1
       Maximum Velocity Error:  0.18E-04 on Mesh 4 at (5,0,9)
       Maximum Pressure Error:  0.26E-07 on Mesh 3 at (5,5,15)
       ---------------------------------------------------------------
       Mesh    1
       Max CFL number:  0.28E-01 at (3,3,10)
       Max divergence:  0.12E-05 at (2,4,2)
       Min divergence: -0.99E-06 at (4,3,12)
       Max VN number:   0.17E-01 at (7,4,13)
       Mesh    2
       Max CFL number:  0.28E-01 at (5,6,9)
       Max divergence:  0.18E-05 at (7,2,2)
       Min divergence: -0.10E-05 at (8,3,13)
       Max VN number:   0.25E-01 at (7,8,1)
       Mesh    3
       Max CFL number:  0.28E-01 at (6,9,12)
       Max divergence:  0.15E-05 at (9,6,2)
       Min divergence: -0.96E-06 at (8,2,6)
       Max VN number:   0.21E-01 at (7,9,1)
       Mesh    4
       Max CFL number:  0.29E-01 at (9,3,8)
       Max divergence:  0.19E-05 at (3,5,2)
       Min divergence: -0.94E-06 at (8,9,9)
       Max VN number:   0.17E-01 at (4,3,8)
 
       Time Step        6   December 16, 2024  10:02:23
       Step Size:    0.130E+00 s, Total Time:       0.78 s
       Pressure Iterations: 1
       Maximum Velocity Error:  0.15E-04 on Mesh 1 at (10,5,1)
       Maximum Pressure Error:  0.26E-07 on Mesh 3 at (5,5,15)
       ---------------------------------------------------------------
       Mesh    1
       Max CFL number:  0.28E-01 at (3,3,10)
       Max divergence:  0.12E-05 at (2,4,2)
       Min divergence: -0.99E-06 at (4,3,12)
       Max VN number:   0.17E-01 at (7,4,13)
       Mesh    2
       Max CFL number:  0.28E-01 at (5,6,9)
       Max divergence:  0.18E-05 at (7,2,2)
       Min divergence: -0.10E-05 at (8,3,13)
       Max VN number:   0.25E-01 at (7,8,1)
       Mesh    3
       Max CFL number:  0.28E-01 at (6,9,12)
       Max divergence:  0.14E-05 at (9,6,2)
       Min divergence: -0.97E-06 at (8,2,6)
       Max VN number:   0.22E-01 at (7,9,1)
       Mesh    4
       Max CFL number:  0.29E-01 at (9,3,8)
       Max divergence:  0.19E-05 at (3,5,2)
       Min divergence: -0.94E-06 at (8,9,9)
       Max VN number:   0.17E-01 at (4,3,8)
 
       Time Step        7   December 16, 2024  10:02:23
       Step Size:    0.130E+00 s, Total Time:       0.91 s
       Pressure Iterations: 1
       Maximum Velocity Error:  0.16E-04 on Mesh 2 at (1,10,9)
       Maximum Pressure Error:  0.20E-07 on Mesh 1 at (4,4,15)
       ---------------------------------------------------------------
       Mesh    1
       Max CFL number:  0.27E-01 at (6,6,7)
       Max divergence:  0.12E-05 at (2,4,2)
       Min divergence: -0.99E-06 at (4,3,12)
       Max VN number:   0.17E-01 at (7,4,13)
       Mesh    2
       Max CFL number:  0.28E-01 at (5,6,9)
       Max divergence:  0.18E-05 at (7,2,2)
       Min divergence: -0.10E-05 at (8,3,13)
       Max VN number:   0.25E-01 at (7,8,1)
       Mesh    3
       Max CFL number:  0.28E-01 at (6,9,12)
       Max divergence:  0.14E-05 at (9,6,2)
       Min divergence: -0.97E-06 at (8,2,6)
       Max VN number:   0.22E-01 at (7,9,1)
       Mesh    4
       Max CFL number:  0.28E-01 at (9,3,8)
       Max divergence:  0.19E-05 at (3,5,2)
       Min divergence: -0.94E-06 at (8,9,9)
       Max VN number:   0.17E-01 at (4,3,8)
 
       Time Step        8   December 16, 2024  10:02:23
       Step Size:    0.130E+00 s, Total Time:       1.04 s
       Pressure Iterations: 1
       Maximum Velocity Error:  0.14E-04 on Mesh 3 at (10,1,9)
       Maximum Pressure Error:  0.20E-07 on Mesh 2 at (6,5,15)
       ---------------------------------------------------------------
       Mesh    1
       Max CFL number:  0.27E-01 at (6,6,7)
       Max divergence:  0.12E-05 at (2,4,2)
       Min divergence: -0.98E-06 at (4,3,12)
       Max VN number:   0.17E-01 at (7,4,13)
       Mesh    2
       Max CFL number:  0.28E-01 at (5,6,9)
       Max divergence:  0.18E-05 at (7,2,2)
       Min divergence: -0.10E-05 at (8,3,13)
       Max VN number:   0.26E-01 at (7,8,1)
       Mesh    3
       Max CFL number:  0.27E-01 at (8,6,4)
       Max divergence:  0.14E-05 at (9,6,2)
       Min divergence: -0.97E-06 at (8,2,6)
       Max VN number:   0.22E-01 at (7,9,1)
       Mesh    4
       Max CFL number:  0.28E-01 at (9,3,8)
       Max divergence:  0.19E-05 at (3,5,2)
       Min divergence: -0.94E-06 at (8,9,9)
       Max VN number:   0.17E-01 at (4,3,8)
 
       Time Step        9   December 16, 2024  10:02:24
       Step Size:    0.130E+00 s, Total Time:       1.17 s
       Pressure Iterations: 1
       Maximum Velocity Error:  0.10E-04 on Mesh 2 at (0,10,2)
       Maximum Pressure Error:  0.17E-07 on Mesh 4 at (10,9,15)
       ---------------------------------------------------------------
       Mesh    1
       Max CFL number:  0.27E-01 at (6,6,7)
       Max divergence:  0.12E-05 at (2,4,2)
       Min divergence: -0.98E-06 at (4,3,12)
       Max VN number:   0.17E-01 at (7,4,13)
       Mesh    2
       Max CFL number:  0.28E-01 at (5,6,9)
       Max divergence:  0.18E-05 at (7,2,2)
       Min divergence: -0.10E-05 at (8,3,13)
       Max VN number:   0.26E-01 at (7,8,1)
       Mesh    3
       Max CFL number:  0.27E-01 at (8,6,4)
       Max divergence:  0.14E-05 at (9,6,2)
       Min divergence: -0.98E-06 at (8,2,6)
       Max VN number:   0.22E-01 at (7,9,1)
       Mesh    4
       Max CFL number:  0.28E-01 at (9,3,8)
       Max divergence:  0.19E-05 at (3,5,2)
       Min divergence: -0.94E-06 at (8,9,9)
       Max VN number:   0.17E-01 at (4,3,8)
 
       Time Step       10   December 16, 2024  10:02:24
       Step Size:    0.130E+00 s, Total Time:       1.30 s
       Pressure Iterations: 1
       Maximum Velocity Error:  0.77E-05 on Mesh 3 at (1,0,11)
       Maximum Pressure Error:  0.19E-07 on Mesh 1 at (4,4,15)
       ---------------------------------------------------------------
       Mesh    1
       Max CFL number:  0.27E-01 at (6,6,7)
       Max divergence:  0.12E-05 at (2,4,2)
       Min divergence: -0.97E-06 at (4,3,12)
       Max VN number:   0.17E-01 at (7,4,13)
       Mesh    2
       Max CFL number:  0.28E-01 at (5,6,9)
       Max divergence:  0.18E-05 at (7,2,2)
       Min divergence: -0.10E-05 at (8,3,13)
       Max VN number:   0.26E-01 at (7,8,1)
       Mesh    3
       Max CFL number:  0.27E-01 at (8,6,4)
       Max divergence:  0.14E-05 at (9,6,2)
       Min divergence: -0.98E-06 at (8,2,6)
       Max VN number:   0.22E-01 at (7,9,1)
       Mesh    4
       Max CFL number:  0.28E-01 at (9,3,8)
       Max divergence:  0.19E-05 at (3,5,2)
       Min divergence: -0.94E-06 at (4,4,9)
       Max VN number:   0.17E-01 at (4,3,8)
 
       Time Step       20   December 16, 2024  10:02:24
       Step Size:    0.130E+00 s, Total Time:       2.61 s
       Pressure Iterations: 1
       Maximum Velocity Error:  0.56E-05 on Mesh 3 at (10,3,15)
       Maximum Pressure Error:  0.13E-07 on Mesh 4 at (7,7,15)
       ---------------------------------------------------------------
       Mesh    1
       Max CFL number:  0.26E-01 at (6,6,7)
       Max divergence:  0.12E-05 at (2,4,2)
       Min divergence: -0.91E-06 at (4,3,12)
       Max VN number:   0.16E-01 at (7,4,13)
       Mesh    2
       Max CFL number:  0.27E-01 at (4,9,8)
       Max divergence:  0.17E-05 at (7,2,2)
       Min divergence: -0.97E-06 at (8,3,13)
       Max VN number:   0.27E-01 at (7,8,1)
       Mesh    3
       Max CFL number:  0.26E-01 at (8,6,4)
       Max divergence:  0.14E-05 at (9,6,2)
       Min divergence: -0.97E-06 at (8,2,6)
       Max VN number:   0.23E-01 at (7,9,1)
       Mesh    4
       Max CFL number:  0.26E-01 at (8,7,2)
       Max divergence:  0.18E-05 at (3,5,2)
       Min divergence: -0.91E-06 at (4,4,9)
       Max VN number:   0.16E-01 at (5,3,12)
 
       Time Step       30   December 16, 2024  10:02:25
       Step Size:    0.130E+00 s, Total Time:       3.91 s
       Pressure Iterations: 1
       Maximum Velocity Error:  0.64E-05 on Mesh 2 at (6,10,15)
       Maximum Pressure Error:  0.16E-07 on Mesh 1 at (4,4,15)
       ---------------------------------------------------------------
       Mesh    1
       Max CFL number:  0.25E-01 at (6,6,7)
       Max divergence:  0.12E-05 at (2,4,2)
       Min divergence: -0.90E-06 at (5,6,13)
       Max VN number:   0.15E-01 at (9,5,7)
       Mesh    2
       Max CFL number:  0.26E-01 at (4,9,8)
       Max divergence:  0.17E-05 at (7,2,2)
       Min divergence: -0.92E-06 at (8,3,13)
       Max VN number:   0.28E-01 at (7,8,1)
       Mesh    3
       Max CFL number:  0.26E-01 at (8,6,4)
       Max divergence:  0.13E-05 at (9,6,2)
       Min divergence: -0.94E-06 at (8,2,6)
       Max VN number:   0.23E-01 at (7,9,1)
       Mesh    4
       Max CFL number:  0.25E-01 at (8,7,2)
       Max divergence:  0.17E-05 at (3,5,2)
       Min divergence: -0.86E-06 at (9,5,2)
       Max VN number:   0.16E-01 at (5,3,12)
 
       Time Step       40   December 16, 2024  10:02:25
       Step Size:    0.130E+00 s, Total Time:       5.21 s
       Pressure Iterations: 1
       Maximum Velocity Error:  0.47E-05 on Mesh 1 at (2,10,15)
       Maximum Pressure Error:  0.17E-07 on Mesh 3 at (3,3,15)
       ---------------------------------------------------------------
       Mesh    1
       Max CFL number:  0.24E-01 at (6,6,7)
       Max divergence:  0.12E-05 at (2,4,2)
       Min divergence: -0.89E-06 at (5,6,13)
       Max VN number:   0.15E-01 at (9,5,7)
       Mesh    2
       Max CFL number:  0.25E-01 at (4,9,8)
       Max divergence:  0.16E-05 at (7,2,2)
       Min divergence: -0.86E-06 at (8,3,13)
       Max VN number:   0.27E-01 at (7,8,1)
       Mesh    3
       Max CFL number:  0.25E-01 at (8,6,4)
       Max divergence:  0.12E-05 at (9,6,2)
       Min divergence: -0.96E-06 at (8,10,8)
       Max VN number:   0.23E-01 at (7,9,1)
       Mesh    4
       Max CFL number:  0.24E-01 at (8,7,2)
       Max divergence:  0.16E-05 at (8,7,2)
       Min divergence: -0.83E-06 at (5,1,14)
       Max VN number:   0.15E-01 at (5,3,12)
 
       Time Step       50   December 16, 2024  10:02:26
       Step Size:    0.130E+00 s, Total Time:       6.52 s
       Pressure Iterations: 1
       Maximum Velocity Error:  0.57E-05 on Mesh 1 at (10,2,15)
       Maximum Pressure Error:  0.13E-07 on Mesh 1 at (4,4,15)
       ---------------------------------------------------------------
       Mesh    1
       Max CFL number:  0.23E-01 at (6,6,7)
       Max divergence:  0.12E-05 at (2,4,2)
       Min divergence: -0.87E-06 at (5,6,13)
       Max VN number:   0.14E-01 at (9,5,7)
       Mesh    2
       Max CFL number:  0.24E-01 at (4,9,8)
       Max divergence:  0.15E-05 at (7,2,2)
       Min divergence: -0.80E-06 at (8,3,13)
       Max VN number:   0.27E-01 at (7,8,1)
       Mesh    3
       Max CFL number:  0.24E-01 at (8,6,4)
       Max divergence:  0.11E-05 at (9,6,2)
       Min divergence: -0.97E-06 at (8,10,8)
       Max VN number:   0.23E-01 at (7,9,1)
       Mesh    4
       Max CFL number:  0.23E-01 at (8,7,2)
       Max divergence:  0.16E-05 at (8,7,2)
       Min divergence: -0.82E-06 at (5,1,14)
       Max VN number:   0.15E-01 at (5,3,12)
 
       Time Step       60   December 16, 2024  10:02:26
       Step Size:    0.130E+00 s, Total Time:       7.82 s
       Pressure Iterations: 1
       Maximum Velocity Error:  0.56E-05 on Mesh 2 at (10,10,9)
       Maximum Pressure Error:  0.13E-07 on Mesh 4 at (7,7,15)
       ---------------------------------------------------------------
       Mesh    1
       Max CFL number:  0.23E-01 at (6,6,7)
       Max divergence:  0.11E-05 at (2,4,2)
       Min divergence: -0.85E-06 at (5,6,13)
       Max VN number:   0.14E-01 at (9,5,7)
       Mesh    2
       Max CFL number:  0.23E-01 at (4,9,8)
       Max divergence:  0.13E-05 at (7,2,2)
       Min divergence: -0.76E-06 at (8,3,13)
       Max VN number:   0.26E-01 at (7,8,1)
       Mesh    3
       Max CFL number:  0.23E-01 at (8,6,4)
       Max divergence:  0.11E-05 at (9,6,2)
       Min divergence: -0.96E-06 at (8,10,8)
       Max VN number:   0.22E-01 at (7,9,1)
       Mesh    4
       Max CFL number:  0.22E-01 at (8,7,2)
       Max divergence:  0.16E-05 at (8,7,2)
       Min divergence: -0.80E-06 at (5,1,14)
       Max VN number:   0.15E-01 at (10,4,1)
 
       Time Step       70   December 16, 2024  10:02:27
       Step Size:    0.130E+00 s, Total Time:       9.13 s
       Pressure Iterations: 1
       Maximum Velocity Error:  0.33E-05 on Mesh 1 at (10,6,15)
       Maximum Pressure Error:  0.16E-07 on Mesh 3 at (8,10,8)
       ---------------------------------------------------------------
       Mesh    1
       Max CFL number:  0.22E-01 at (6,5,7)
       Max divergence:  0.11E-05 at (2,4,2)
       Min divergence: -0.83E-06 at (5,6,13)
       Max VN number:   0.13E-01 at (9,4,13)
       Mesh    2
       Max CFL number:  0.22E-01 at (4,9,8)
       Max divergence:  0.13E-05 at (5,8,2)
       Min divergence: -0.74E-06 at (5,7,3)
       Max VN number:   0.25E-01 at (7,8,1)
       Mesh    3
       Max CFL number:  0.23E-01 at (8,6,4)
       Max divergence:  0.10E-05 at (6,3,2)
       Min divergence: -0.95E-06 at (8,10,8)
       Max VN number:   0.22E-01 at (7,9,1)
       Mesh    4
       Max CFL number:  0.21E-01 at (8,7,2)
       Max divergence:  0.16E-05 at (8,7,2)
       Min divergence: -0.78E-06 at (5,1,14)
       Max VN number:   0.15E-01 at (10,4,1)
 
       Time Step       80   December 16, 2024  10:02:27
       Step Size:    0.130E+00 s, Total Time:      10.43 s
       Pressure Iterations: 4
       Maximum Velocity Error:  0.41E-01 on Mesh 1 at (7,10,1)
       Maximum Pressure Error:  0.32E+02 on Mesh 3 at (6,4,1)
       ---------------------------------------------------------------
       Mesh    1
       Max CFL number:  0.21E-01 at (6,5,7)
       Max divergence:  0.67E+00 at (9,10,1)
       Min divergence: -0.25E-04 at (5,5,2)
       Max VN number:   0.14E-01 at (6,2,1)
       Total Heat Release Rate:             22.597 kW
       Mesh    2
       Max CFL number:  0.21E-01 at (4,9,8)
       Max divergence:  0.12E-05 at (5,8,2)
       Min divergence: -0.16E-04 at (1,7,1)
       Max VN number:   0.24E-01 at (7,8,1)
       Mesh    3
       Max CFL number:  0.22E-01 at (8,6,4)
       Max divergence:  0.78E+00 at (4,2,1)
       Min divergence: -0.41E-04 at (7,9,2)
       Max VN number:   0.21E-01 at (7,9,1)
       Total Heat Release Rate:             26.448 kW
       Mesh    4
       Max CFL number:  0.20E-01 at (3,9,2)
       Max divergence:  0.16E-05 at (8,7,2)
       Min divergence: -0.27E-04 at (1,8,1)
       Max VN number:   0.14E-01 at (10,4,1)
 
       Time Step       90   December 16, 2024  10:02:28
       Step Size:    0.437E-01 s, Total Time:      11.19 s
       Pressure Iterations: 4
       Maximum Velocity Error:  0.38E-01 on Mesh 1 at (3,10,1)
       Maximum Pressure Error:  0.44E+03 on Mesh 3 at (9,4,1)
       ---------------------------------------------------------------
       Mesh    1
       Max CFL number:  0.84E+00 at (2,2,1)
       Max divergence:  0.55E+01 at (3,5,1)
       Min divergence: -0.37E+00 at (3,3,2)
       Max VN number:   0.17E+00 at (10,2,3)
       Total Heat Release Rate:            222.270 kW
       Radiation Loss to Boundaries:      -107.531 kW
       Mesh    2
       Max CFL number:  0.41E+00 at (1,10,1)
       Max divergence:  0.41E+00 at (1,3,3)
       Min divergence:  0.15E-05 at (2,1,15)
       Max VN number:   0.93E-01 at (1,3,2)
       Total Heat Release Rate:              3.766 kW
       Radiation Loss to Boundaries:        -1.050 kW
       Mesh    3
       Max CFL number:  0.90E+00 at (2,9,1)
       Max divergence:  0.75E+01 at (3,5,1)
       Min divergence: -0.11E+01 at (9,8,2)
       Max VN number:   0.19E+00 at (10,9,3)
       Total Heat Release Rate:            276.679 kW
       Radiation Loss to Boundaries:      -122.114 kW
       Mesh    4
       Max CFL number:  0.48E+00 at (1,1,1)
       Max divergence:  0.17E+01 at (1,9,1)
       Min divergence:  0.63E-05 at (2,1,15)
       Max VN number:   0.94E-01 at (1,9,3)
       Total Heat Release Rate:             61.944 kW
       Radiation Loss to Boundaries:        -2.121 kW
 
       Time Step      100   December 16, 2024  10:02:28
       Step Size:    0.285E-01 s, Total Time:      11.52 s
       Pressure Iterations: 3
       Maximum Velocity Error:  0.37E-01 on Mesh 4 at (0,7,4)
       Maximum Pressure Error:  0.18E+03 on Mesh 3 at (5,1,1)
       ---------------------------------------------------------------
       Mesh    1
       Max CFL number:  0.87E+00 at (5,5,2)
       Max divergence:  0.44E+01 at (10,4,1)
       Min divergence: -0.11E+01 at (6,5,3)
       Max VN number:   0.24E+00 at (2,2,7)
       Total Heat Release Rate:            366.515 kW
       Radiation Loss to Boundaries:      -155.286 kW
       Mesh    2
       Max CFL number:  0.58E+00 at (1,4,4)
       Max divergence:  0.19E+01 at (6,10,1)
       Min divergence: -0.58E+00 at (1,4,4)
       Max VN number:   0.12E+00 at (1,2,6)
       Total Heat Release Rate:             65.555 kW
       Radiation Loss to Boundaries:        -6.613 kW
       Mesh    3
       Max CFL number:  0.95E+00 at (4,7,3)
       Max divergence:  0.49E+01 at (6,5,4)
       Min divergence: -0.10E+01 at (8,6,3)
       Max VN number:   0.25E+00 at (2,9,8)
       Total Heat Release Rate:            456.590 kW
       Radiation Loss to Boundaries:      -214.470 kW
       Mesh    4
       Max CFL number:  0.72E+00 at (1,9,6)
       Max divergence:  0.37E+01 at (1,9,1)
       Min divergence: -0.63E+00 at (1,8,5)
       Max VN number:   0.16E+00 at (1,9,6)
       Total Heat Release Rate:            244.121 kW
       Radiation Loss to Boundaries:       -78.455 kW
 
       Time Step      200   December 16, 2024  10:02:34
       Step Size:    0.105E-01 s, Total Time:      12.72 s
       Pressure Iterations: 4
       Maximum Velocity Error:  0.40E-01 on Mesh 3 at (10,2,15)
       Maximum Pressure Error:  0.94E+03 on Mesh 1 at (4,2,1)
       ---------------------------------------------------------------
       Mesh    1
       Max CFL number:  0.71E+00 at (10,9,8)
       Max divergence:  0.75E+01 at (4,2,1)
       Min divergence: -0.18E+01 at (6,6,6)
       Max VN number:   0.20E+00 at (9,5,12)
       Total Heat Release Rate:            299.825 kW
       Radiation Loss to Boundaries:       -93.465 kW
       Mesh    2
       Max CFL number:  0.92E+00 at (5,9,14)
       Max divergence:  0.51E+01 at (9,8,1)
       Min divergence: -0.24E+01 at (5,9,15)
       Max VN number:   0.25E+00 at (5,9,14)
       Total Heat Release Rate:            396.009 kW
       Radiation Loss to Boundaries:      -144.910 kW
       Mesh    3
       Max CFL number:  0.74E+00 at (10,2,15)
       Max divergence:  0.60E+01 at (2,10,1)
       Min divergence: -0.32E+01 at (6,4,9)
       Max VN number:   0.19E+00 at (6,4,8)
       Total Heat Release Rate:            335.176 kW
       Radiation Loss to Boundaries:      -109.680 kW
       Mesh    4
       Max CFL number:  0.83E+00 at (3,2,9)
       Max divergence:  0.64E+01 at (1,8,1)
       Min divergence: -0.34E+01 at (5,6,7)
       Max VN number:   0.16E+00 at (5,1,14)
       Total Heat Release Rate:            363.504 kW
       Radiation Loss to Boundaries:      -115.161 kW
 
       Time Step      300   December 16, 2024  10:02:39
       Step Size:    0.101E-01 s, Total Time:      13.69 s
       Pressure Iterations: 4
       Maximum Velocity Error:  0.38E-01 on Mesh 2 at (3,10,15)
       Maximum Pressure Error:  0.96E+03 on Mesh 2 at (2,6,1)
       ---------------------------------------------------------------
       Mesh    1
       Max CFL number:  0.72E+00 at (7,10,9)
       Max divergence:  0.93E+01 at (3,10,1)
       Min divergence: -0.34E+01 at (9,8,1)
       Max VN number:   0.20E+00 at (10,7,1)
       Total Heat Release Rate:            332.283 kW
       Radiation Loss to Boundaries:       -91.450 kW
       Mesh    2
       Max CFL number:  0.79E+00 at (1,10,13)
       Max divergence:  0.57E+01 at (9,10,1)
       Min divergence: -0.24E+01 at (2,8,3)
       Max VN number:   0.22E+00 at (1,7,8)
       Total Heat Release Rate:            350.513 kW
       Radiation Loss to Boundaries:      -113.234 kW
       Mesh    3
       Max CFL number:  0.85E+00 at (9,2,12)
       Max divergence:  0.80E+01 at (4,4,1)
       Min divergence: -0.25E+01 at (9,2,14)
       Max VN number:   0.46E+00 at (7,1,1)
       Total Heat Release Rate:            415.226 kW
       Radiation Loss to Boundaries:      -170.031 kW
       Mesh    4
       Max CFL number:  0.86E+00 at (2,1,13)
       Max divergence:  0.65E+01 at (8,1,1)
       Min divergence: -0.22E+01 at (1,1,3)
       Max VN number:   0.19E+00 at (4,1,13)
       Total Heat Release Rate:            318.942 kW
       Radiation Loss to Boundaries:       -89.209 kW
 
       Time Step      400   December 16, 2024  10:02:45
       Step Size:    0.941E-02 s, Total Time:      14.64 s
       Pressure Iterations: 4
       Maximum Velocity Error:  0.40E-01 on Mesh 1 at (7,10,15)
       Maximum Pressure Error:  0.15E+04 on Mesh 2 at (6,5,1)
       ---------------------------------------------------------------
       Mesh    1
       Max CFL number:  0.87E+00 at (8,8,13)
       Max divergence:  0.71E+01 at (2,9,1)
       Min divergence: -0.25E+01 at (9,8,14)
       Max VN number:   0.46E+00 at (8,8,1)
       Total Heat Release Rate:            372.717 kW
       Radiation Loss to Boundaries:      -139.623 kW
       Mesh    2
       Max CFL number:  0.73E+00 at (4,9,11)
       Max divergence:  0.81E+01 at (5,3,1)
       Min divergence: -0.23E+01 at (4,9,13)
       Max VN number:   0.34E+00 at (6,5,1)
       Total Heat Release Rate:            387.067 kW
       Radiation Loss to Boundaries:      -122.927 kW
       Mesh    3
       Max CFL number:  0.73E+00 at (8,1,10)
       Max divergence:  0.93E+01 at (2,7,1)
       Min divergence: -0.19E+01 at (10,1,2)
       Max VN number:   0.37E+00 at (10,1,1)
       Total Heat Release Rate:            369.799 kW
       Radiation Loss to Boundaries:      -110.130 kW
       Mesh    4
       Max CFL number:  0.57E+00 at (1,2,15)
       Max divergence:  0.83E+01 at (5,8,1)
       Min divergence: -0.26E+01 at (8,5,8)
       Max VN number:   0.18E+00 at (8,5,8)
       Total Heat Release Rate:            303.970 kW
       Radiation Loss to Boundaries:       -94.943 kW
 
       Time Step      500   December 16, 2024  10:02:50
       Step Size:    0.107E-01 s, Total Time:      15.64 s
       Pressure Iterations: 5
       Maximum Velocity Error:  0.32E-01 on Mesh 2 at (5,10,15)
       Maximum Pressure Error:  0.11E+04 on Mesh 3 at (9,10,4)
       ---------------------------------------------------------------
       Mesh    1
       Max CFL number:  0.73E+00 at (7,10,12)
       Max divergence:  0.96E+01 at (4,2,1)
       Min divergence: -0.24E+01 at (7,7,4)
       Max VN number:   0.20E+00 at (3,2,1)
       Total Heat Release Rate:            299.308 kW
       Radiation Loss to Boundaries:       -70.148 kW
       Mesh    2
       Max CFL number:  0.85E+00 at (5,10,14)
       Max divergence:  0.97E+01 at (6,3,1)
       Min divergence: -0.20E+01 at (2,8,6)
       Max VN number:   0.26E+00 at (5,5,1)
       Total Heat Release Rate:            365.209 kW
       Radiation Loss to Boundaries:      -131.470 kW
       Mesh    3
       Max CFL number:  0.86E+00 at (10,4,15)
       Max divergence:  0.51E+01 at (10,9,1)
       Min divergence: -0.52E+01 at (9,10,6)
       Max VN number:   0.52E+00 at (9,9,1)
       Total Heat Release Rate:            302.089 kW
       Radiation Loss to Boundaries:      -140.540 kW
       Mesh    4
       Max CFL number:  0.80E+00 at (5,1,14)
       Max divergence:  0.93E+01 at (2,8,1)
       Min divergence: -0.18E+01 at (3,4,6)
       Max VN number:   0.44E+00 at (4,2,1)
       Total Heat Release Rate:            358.124 kW
       Radiation Loss to Boundaries:      -105.785 kW
 
       Time Step      600   December 16, 2024  10:02:56
       Step Size:    0.125E-01 s, Total Time:      16.70 s
       Pressure Iterations: 3
       Maximum Velocity Error:  0.40E-01 on Mesh 1 at (10,8,15)
       Maximum Pressure Error:  0.11E+03 on Mesh 2 at (2,5,13)
       ---------------------------------------------------------------
       Mesh    1
       Max CFL number:  0.71E+00 at (10,10,14)
       Max divergence:  0.14E+01 at (3,9,1)
       Min divergence: -0.81E+00 at (10,7,9)
       Max VN number:   0.25E+00 at (6,6,1)
       Total Heat Release Rate:             36.268 kW
       Radiation Loss to Boundaries:         1.555 kW
       Mesh    2
       Max CFL number:  0.79E+00 at (2,6,15)
       Max divergence:  0.20E+01 at (6,10,1)
       Min divergence: -0.15E+01 at (3,10,2)
       Max VN number:   0.22E+00 at (2,6,15)
       Total Heat Release Rate:             44.183 kW
       Radiation Loss to Boundaries:        -6.836 kW
       Mesh    3
       Max CFL number:  0.73E+00 at (9,1,14)
       Max divergence:  0.12E+01 at (5,4,1)
       Min divergence: -0.13E+01 at (10,6,9)
       Max VN number:   0.20E+00 at (10,6,10)
       Total Heat Release Rate:             32.200 kW
       Radiation Loss to Boundaries:         0.448 kW
       Mesh    4
       Max CFL number:  0.80E+00 at (5,3,6)
       Max divergence:  0.27E+01 at (7,4,4)
       Min divergence: -0.22E+01 at (6,4,2)
       Max VN number:   0.39E+00 at (6,4,1)
       Total Heat Release Rate:            141.438 kW
       Radiation Loss to Boundaries:       -70.367 kW
 
       Time Step      700   December 16, 2024  10:03:01
       Step Size:    0.258E-01 s, Total Time:      18.60 s
       Pressure Iterations: 3
       Maximum Velocity Error:  0.30E-01 on Mesh 3 at (10,3,7)
       Maximum Pressure Error:  0.32E+02 on Mesh 3 at (4,10,8)
       ---------------------------------------------------------------
       Mesh    1
       Max CFL number:  0.66E+00 at (10,10,9)
       Max divergence:  0.12E+01 at (5,4,1)
       Min divergence: -0.35E+00 at (9,10,13)
       Max VN number:   0.19E+00 at (3,9,1)
       Total Heat Release Rate:             34.567 kW
       Radiation Loss to Boundaries:        -7.447 kW
       Mesh    2
       Max CFL number:  0.62E+00 at (5,7,11)
       Max divergence:  0.98E+00 at (3,9,1)
       Min divergence: -0.36E+00 at (4,8,5)
       Max VN number:   0.38E+00 at (3,8,1)
       Total Heat Release Rate:             40.695 kW
       Radiation Loss to Boundaries:       -14.743 kW
       Mesh    3
       Max CFL number:  0.95E+00 at (8,6,13)
       Max divergence:  0.82E+00 at (3,1,1)
       Min divergence: -0.37E+00 at (9,3,12)
       Max VN number:   0.41E+00 at (9,4,1)
       Total Heat Release Rate:             33.887 kW
       Radiation Loss to Boundaries:        -9.659 kW
       Mesh    4
       Max CFL number:  0.75E+00 at (4,5,13)
       Max divergence:  0.13E+01 at (2,8,1)
       Min divergence: -0.41E+00 at (3,4,4)
       Max VN number:   0.38E+00 at (7,3,1)
       Total Heat Release Rate:             39.701 kW
       Radiation Loss to Boundaries:       -14.997 kW
 
       Time Step      800   December 16, 2024  10:03:06
       Step Size:    0.250E-01 s, Total Time:      21.01 s
       Pressure Iterations: 3
       Maximum Velocity Error:  0.37E-01 on Mesh 3 at (10,4,15)
       Maximum Pressure Error:  0.12E+02 on Mesh 2 at (2,10,10)
       ---------------------------------------------------------------
       Mesh    1
       Max CFL number:  0.66E+00 at (9,6,10)
       Max divergence:  0.11E+01 at (3,3,1)
       Min divergence: -0.37E+00 at (10,10,4)
       Max VN number:   0.37E+00 at (6,3,1)
       Total Heat Release Rate:             37.249 kW
       Radiation Loss to Boundaries:       -10.977 kW
       Mesh    2
       Max CFL number:  0.72E+00 at (2,10,10)
       Max divergence:  0.14E+01 at (5,9,1)
       Min divergence: -0.41E+00 at (3,7,4)
       Max VN number:   0.54E+00 at (8,7,1)
       Total Heat Release Rate:             40.362 kW
       Radiation Loss to Boundaries:       -12.804 kW
       Mesh    3
       Max CFL number:  0.93E+00 at (10,4,14)
       Max divergence:  0.97E+00 at (3,1,1)
       Min divergence: -0.51E+00 at (10,3,6)
       Max VN number:   0.26E+00 at (9,9,1)
       Total Heat Release Rate:             33.451 kW
       Radiation Loss to Boundaries:        -9.625 kW
       Mesh    4
       Max CFL number:  0.88E+00 at (3,2,14)
       Max divergence:  0.13E+01 at (2,1,1)
       Min divergence: -0.57E+00 at (1,3,4)
       Max VN number:   0.58E+00 at (3,5,1)
       Total Heat Release Rate:             38.080 kW
       Radiation Loss to Boundaries:       -13.746 kW
 
       Time Step      900   December 16, 2024  10:03:11
       Step Size:    0.234E-01 s, Total Time:      23.32 s
       Pressure Iterations: 3
       Maximum Velocity Error:  0.29E-01 on Mesh 1 at (10,9,15)
       Maximum Pressure Error:  0.20E+02 on Mesh 4 at (2,6,13)
       ---------------------------------------------------------------
       Mesh    1
       Max CFL number:  0.82E+00 at (10,9,13)
       Max divergence:  0.74E+00 at (5,4,1)
       Min divergence: -0.44E+00 at (5,4,4)
       Max VN number:   0.21E+00 at (9,6,1)
       Total Heat Release Rate:             38.050 kW
       Radiation Loss to Boundaries:       -10.529 kW
       Mesh    2
       Max CFL number:  0.70E+00 at (1,9,11)
       Max divergence:  0.12E+01 at (6,4,1)
       Min divergence: -0.45E+00 at (5,7,3)
       Max VN number:   0.29E+00 at (8,8,1)
       Total Heat Release Rate:             39.514 kW
       Radiation Loss to Boundaries:       -12.751 kW
       Mesh    3
       Max CFL number:  0.90E+00 at (9,1,14)
       Max divergence:  0.95E+00 at (5,5,1)
       Min divergence: -0.52E+00 at (10,4,6)
       Max VN number:   0.35E+00 at (5,5,1)
       Total Heat Release Rate:             35.164 kW
       Radiation Loss to Boundaries:       -11.406 kW
       Mesh    4
       Max CFL number:  0.84E+00 at (1,2,13)
       Max divergence:  0.83E+00 at (8,5,1)
       Min divergence: -0.30E+00 at (4,2,4)
       Max VN number:   0.55E+00 at (7,5,1)
       Total Heat Release Rate:             37.620 kW
       Radiation Loss to Boundaries:       -12.010 kW
 
       Time Step     1000   December 16, 2024  10:03:17
       Step Size:    0.224E-01 s, Total Time:      25.66 s
       Pressure Iterations: 3
       Maximum Velocity Error:  0.38E-01 on Mesh 1 at (8,10,11)
       Maximum Pressure Error:  0.22E+02 on Mesh 1 at (8,9,15)
       ---------------------------------------------------------------
       Mesh    1
       Max CFL number:  0.78E+00 at (9,10,12)
       Max divergence:  0.76E+00 at (8,3,1)
       Min divergence: -0.46E+00 at (8,9,5)
       Max VN number:   0.15E+00 at (5,10,14)
       Total Heat Release Rate:             37.695 kW
       Radiation Loss to Boundaries:       -11.302 kW
       Mesh    2
       Max CFL number:  0.80E+00 at (1,9,14)
       Max divergence:  0.13E+01 at (9,9,1)
       Min divergence: -0.41E+00 at (2,8,4)
       Max VN number:   0.33E+00 at (4,7,1)
       Total Heat Release Rate:             39.622 kW
       Radiation Loss to Boundaries:       -13.056 kW
       Mesh    3
       Max CFL number:  0.83E+00 at (8,1,13)
       Max divergence:  0.14E+01 at (4,8,1)
       Min divergence: -0.50E+00 at (9,2,5)
       Max VN number:   0.19E+00 at (1,7,1)
       Total Heat Release Rate:             35.241 kW
       Radiation Loss to Boundaries:       -10.527 kW
       Mesh    4
       Max CFL number:  0.69E+00 at (1,3,15)
       Max divergence:  0.11E+01 at (8,8,1)
       Min divergence: -0.43E+00 at (1,2,4)
       Max VN number:   0.25E+00 at (2,1,1)
       Total Heat Release Rate:             36.749 kW
       Radiation Loss to Boundaries:       -12.351 kW
 
       Time Step     1100   December 16, 2024  10:03:22
       Step Size:    0.214E-01 s, Total Time:      28.02 s
       Pressure Iterations: 3
       Maximum Velocity Error:  0.38E-01 on Mesh 4 at (1,0,14)
       Maximum Pressure Error:  0.14E+02 on Mesh 4 at (2,2,11)
       ---------------------------------------------------------------
       Mesh    1
       Max CFL number:  0.75E+00 at (10,10,14)
       Max divergence:  0.94E+00 at (7,6,1)
       Min divergence: -0.49E+00 at (10,10,4)
       Max VN number:   0.25E+00 at (7,6,1)
       Total Heat Release Rate:             38.311 kW
       Radiation Loss to Boundaries:       -11.372 kW
       Mesh    2
       Max CFL number:  0.80E+00 at (1,10,13)
       Max divergence:  0.95E+00 at (9,4,1)
       Min divergence: -0.43E+00 at (1,10,6)
       Max VN number:   0.34E+00 at (8,10,1)
       Total Heat Release Rate:             38.718 kW
       Radiation Loss to Boundaries:       -12.735 kW
       Mesh    3
       Max CFL number:  0.64E+00 at (10,1,14)
       Max divergence:  0.14E+01 at (4,1,1)
       Min divergence: -0.32E+00 at (8,3,4)
       Max VN number:   0.20E+00 at (7,1,1)
       Total Heat Release Rate:             34.604 kW
       Radiation Loss to Boundaries:       -10.086 kW
       Mesh    4
       Max CFL number:  0.89E+00 at (1,1,14)
       Max divergence:  0.95E+00 at (8,8,1)
       Min divergence: -0.47E+00 at (1,1,6)
       Max VN number:   0.16E+00 at (1,1,13)
       Total Heat Release Rate:             38.020 kW
       Radiation Loss to Boundaries:       -12.081 kW
 
       Time Step     1200   December 16, 2024  10:03:27
       Step Size:    0.250E-01 s, Total Time:      30.39 s
       Pressure Iterations: 3
       Maximum Velocity Error:  0.50E-01 on Mesh 1 at (10,9,15)
       Maximum Pressure Error:  0.95E+01 on Mesh 1 at (8,10,14)
       ---------------------------------------------------------------
       Mesh    1
       Max CFL number:  0.91E+00 at (10,9,14)
       Max divergence:  0.11E+01 at (10,6,1)
       Min divergence: -0.49E+00 at (10,9,5)
       Max VN number:   0.33E+00 at (5,5,1)
       Total Heat Release Rate:             38.237 kW
       Radiation Loss to Boundaries:       -12.572 kW
       Mesh    2
       Max CFL number:  0.88E+00 at (1,9,13)
       Max divergence:  0.91E+00 at (7,10,1)
       Min divergence: -0.52E+00 at (1,6,4)
       Max VN number:   0.25E+00 at (7,10,1)
       Total Heat Release Rate:             37.051 kW
       Radiation Loss to Boundaries:       -10.719 kW
       Mesh    3
       Max CFL number:  0.75E+00 at (10,1,15)
       Max divergence:  0.97E+00 at (3,7,1)
       Min divergence: -0.36E+00 at (10,1,5)
       Max VN number:   0.29E+00 at (2,5,1)
       Total Heat Release Rate:             33.786 kW
       Radiation Loss to Boundaries:        -9.535 kW
       Mesh    4
       Max CFL number:  0.72E+00 at (2,3,11)
       Max divergence:  0.84E+00 at (9,6,1)
       Min divergence: -0.48E+00 at (3,2,4)
       Max VN number:   0.30E+00 at (3,5,1)
       Total Heat Release Rate:             39.776 kW
       Radiation Loss to Boundaries:       -14.413 kW
 
       Time Step     1300   December 16, 2024  10:03:33
       Step Size:    0.240E-01 s, Total Time:      32.78 s
       Pressure Iterations: 3
       Maximum Velocity Error:  0.27E-01 on Mesh 2 at (4,10,14)
       Maximum Pressure Error:  0.15E+02 on Mesh 2 at (7,1,2)
       ---------------------------------------------------------------
       Mesh    1
       Max CFL number:  0.84E+00 at (7,10,15)
       Max divergence:  0.16E+01 at (6,5,1)
       Min divergence: -0.50E+00 at (9,8,12)
       Max VN number:   0.23E+00 at (9,8,11)
       Total Heat Release Rate:             40.578 kW
       Radiation Loss to Boundaries:       -15.023 kW
       Mesh    2
       Max CFL number:  0.68E+00 at (2,10,15)
       Max divergence:  0.86E+00 at (7,7,1)
       Min divergence: -0.34E+00 at (3,8,4)
       Max VN number:   0.19E+00 at (1,6,1)
       Total Heat Release Rate:             38.103 kW
       Radiation Loss to Boundaries:        -9.830 kW
       Mesh    3
       Max CFL number:  0.82E+00 at (9,2,14)
       Max divergence:  0.85E+00 at (6,2,1)
       Min divergence: -0.41E+00 at (7,5,4)
       Max VN number:   0.20E+00 at (2,8,1)
       Total Heat Release Rate:             35.226 kW
       Radiation Loss to Boundaries:       -11.917 kW
       Mesh    4
       Max CFL number:  0.71E+00 at (2,1,14)
       Max divergence:  0.14E+01 at (5,8,1)
       Min divergence: -0.40E+00 at (1,6,4)
       Max VN number:   0.30E+00 at (3,5,1)
       Total Heat Release Rate:             35.629 kW
       Radiation Loss to Boundaries:        -9.935 kW
 
       Time Step     1400   December 16, 2024  10:03:38
       Step Size:    0.194E-01 s, Total Time:      35.17 s
       Pressure Iterations: 4
       Maximum Velocity Error:  0.28E-01 on Mesh 1 at (9,10,15)
       Maximum Pressure Error:  0.13E+02 on Mesh 1 at (9,10,15)
       ---------------------------------------------------------------
       Mesh    1
       Max CFL number:  0.77E+00 at (10,10,14)
       Max divergence:  0.10E+01 at (7,3,1)
       Min divergence: -0.38E+00 at (9,10,14)
       Max VN number:   0.26E+00 at (9,10,1)
       Total Heat Release Rate:             38.920 kW
       Radiation Loss to Boundaries:       -13.069 kW
       Mesh    2
       Max CFL number:  0.85E+00 at (1,10,12)
       Max divergence:  0.17E+01 at (3,6,1)
       Min divergence: -0.60E+00 at (3,10,5)
       Max VN number:   0.18E+00 at (6,5,1)
       Total Heat Release Rate:             39.734 kW
       Radiation Loss to Boundaries:       -12.046 kW
       Mesh    3
       Max CFL number:  0.69E+00 at (10,1,15)
       Max divergence:  0.11E+01 at (4,6,1)
       Min divergence: -0.41E+00 at (10,1,4)
       Max VN number:   0.27E+00 at (9,1,1)
       Total Heat Release Rate:             35.448 kW
       Radiation Loss to Boundaries:       -11.577 kW
       Mesh    4
       Max CFL number:  0.94E+00 at (3,1,13)
       Max divergence:  0.70E+00 at (9,5,1)
       Min divergence: -0.47E+00 at (3,1,4)
       Max VN number:   0.20E+00 at (10,3,1)
       Total Heat Release Rate:             36.845 kW
       Radiation Loss to Boundaries:       -10.455 kW
 
       Time Step     1500   December 16, 2024  10:03:43
       Step Size:    0.237E-01 s, Total Time:      37.47 s
       Pressure Iterations: 3
       Maximum Velocity Error:  0.28E-01 on Mesh 1 at (8,10,13)
       Maximum Pressure Error:  0.21E+02 on Mesh 4 at (2,3,13)
       ---------------------------------------------------------------
       Mesh    1
       Max CFL number:  0.87E+00 at (9,8,14)
       Max divergence:  0.13E+01 at (7,5,1)
       Min divergence: -0.48E+00 at (10,10,5)
       Max VN number:   0.20E+00 at (9,9,1)
       Total Heat Release Rate:             38.544 kW
       Radiation Loss to Boundaries:       -10.620 kW
       Mesh    2
       Max CFL number:  0.81E+00 at (1,9,13)
       Max divergence:  0.13E+01 at (2,2,1)
       Min divergence: -0.37E+00 at (1,10,3)
       Max VN number:   0.36E+00 at (5,6,1)
       Total Heat Release Rate:             38.897 kW
       Radiation Loss to Boundaries:       -11.901 kW
       Mesh    3
       Max CFL number:  0.75E+00 at (7,2,13)
       Max divergence:  0.13E+01 at (3,5,1)
       Min divergence: -0.46E+00 at (9,1,5)
       Max VN number:   0.43E+00 at (8,5,1)
       Total Heat Release Rate:             34.651 kW
       Radiation Loss to Boundaries:       -10.575 kW
       Mesh    4
       Max CFL number:  0.84E+00 at (2,3,11)
       Max divergence:  0.84E+00 at (7,7,1)
       Min divergence: -0.40E+00 at (2,2,5)
       Max VN number:   0.42E+00 at (2,3,1)
       Total Heat Release Rate:             38.383 kW
       Radiation Loss to Boundaries:       -12.565 kW
 
       Time Step     1600   December 16, 2024  10:03:49
       Step Size:    0.194E-01 s, Total Time:      39.85 s
       Pressure Iterations: 2
       Maximum Velocity Error:  0.37E-01 on Mesh 1 at (9,10,13)
       Maximum Pressure Error:  0.15E+02 on Mesh 4 at (1,3,11)
       ---------------------------------------------------------------
       Mesh    1
       Max CFL number:  0.65E+00 at (10,10,15)
       Max divergence:  0.88E+00 at (10,3,1)
       Min divergence: -0.30E+00 at (9,8,3)
       Max VN number:   0.34E+00 at (10,3,1)
       Total Heat Release Rate:             38.151 kW
       Radiation Loss to Boundaries:       -12.625 kW
       Mesh    2
       Max CFL number:  0.69E+00 at (2,9,13)
       Max divergence:  0.11E+01 at (7,10,1)
       Min divergence: -0.51E+00 at (1,9,6)
       Max VN number:   0.15E+00 at (7,10,1)
       Total Heat Release Rate:             39.802 kW
       Radiation Loss to Boundaries:       -11.960 kW
       Mesh    3
       Max CFL number:  0.85E+00 at (8,2,14)
       Max divergence:  0.69E+00 at (7,8,1)
       Min divergence: -0.45E+00 at (9,1,4)
       Max VN number:   0.23E+00 at (8,10,1)
       Total Heat Release Rate:             33.276 kW
       Radiation Loss to Boundaries:        -9.863 kW
       Mesh    4
       Max CFL number:  0.62E+00 at (1,3,11)
       Max divergence:  0.13E+01 at (9,4,1)
       Min divergence: -0.41E+00 at (1,3,5)
       Max VN number:   0.15E+00 at (5,5,1)
       Total Heat Release Rate:             38.036 kW
       Radiation Loss to Boundaries:       -11.781 kW
 
       Time Step     1700   December 16, 2024  10:03:54
       Step Size:    0.226E-01 s, Total Time:      42.22 s
       Pressure Iterations: 3
       Maximum Velocity Error:  0.37E-01 on Mesh 4 at (0,1,13)
       Maximum Pressure Error:  0.18E+02 on Mesh 2 at (4,1,4)
       ---------------------------------------------------------------
       Mesh    1
       Max CFL number:  0.73E+00 at (10,10,8)
       Max divergence:  0.12E+01 at (9,5,1)
       Min divergence: -0.51E+00 at (10,9,6)
       Max VN number:   0.36E+00 at (10,9,1)
       Total Heat Release Rate:             39.092 kW
       Radiation Loss to Boundaries:       -12.558 kW
       Mesh    2
       Max CFL number:  0.85E+00 at (2,10,14)
       Max divergence:  0.13E+01 at (5,2,1)
       Min divergence: -0.42E+00 at (3,8,5)
       Max VN number:   0.32E+00 at (4,3,1)
       Total Heat Release Rate:             40.996 kW
       Radiation Loss to Boundaries:       -12.563 kW
       Mesh    3
       Max CFL number:  0.84E+00 at (10,3,11)
       Max divergence:  0.65E+00 at (8,1,1)
       Min divergence: -0.44E+00 at (9,1,5)
       Max VN number:   0.20E+00 at (10,2,1)
       Total Heat Release Rate:             33.124 kW
       Radiation Loss to Boundaries:        -7.915 kW
       Mesh    4
       Max CFL number:  0.92E+00 at (1,1,12)
       Max divergence:  0.97E+00 at (7,2,1)
       Min divergence: -0.40E+00 at (4,3,4)
       Max VN number:   0.50E+00 at (8,3,1)
       Total Heat Release Rate:             38.602 kW
       Radiation Loss to Boundaries:       -13.805 kW
 
       Time Step     1800   December 16, 2024  10:03:59
       Step Size:    0.266E-01 s, Total Time:      44.60 s
       Pressure Iterations: 3
       Maximum Velocity Error:  0.42E-01 on Mesh 1 at (10,6,10)
       Maximum Pressure Error:  0.16E+02 on Mesh 1 at (8,7,12)
       ---------------------------------------------------------------
       Mesh    1
       Max CFL number:  0.91E+00 at (10,7,12)
       Max divergence:  0.12E+01 at (10,10,1)
       Min divergence: -0.41E+00 at (8,8,4)
       Max VN number:   0.23E+00 at (10,10,1)
       Total Heat Release Rate:             39.072 kW
       Radiation Loss to Boundaries:       -13.002 kW
       Mesh    2
       Max CFL number:  0.91E+00 at (2,7,13)
       Max divergence:  0.11E+01 at (8,8,1)
       Min divergence: -0.34E+00 at (2,8,4)
       Max VN number:   0.20E+00 at (2,8,1)
       Total Heat Release Rate:             38.669 kW
       Radiation Loss to Boundaries:       -11.986 kW
       Mesh    3
       Max CFL number:  0.72E+00 at (10,2,13)
       Max divergence:  0.78E+00 at (10,7,1)
       Min divergence: -0.24E+00 at (9,1,4)
       Max VN number:   0.35E+00 at (10,1,1)
       Total Heat Release Rate:             32.641 kW
       Radiation Loss to Boundaries:        -9.513 kW
       Mesh    4
       Max CFL number:  0.79E+00 at (1,1,14)
       Max divergence:  0.20E+00 at (1,5,1)
       Min divergence: -0.18E+00 at (1,3,3)
       Max VN number:   0.31E+00 at (9,8,1)
       Total Heat Release Rate:              1.519 kW
       Radiation Loss to Boundaries:        -0.557 kW
 
       Time Step     1900   December 16, 2024  10:04:04
       Step Size:    0.233E-01 s, Total Time:      47.16 s
       Pressure Iterations: 2
       Maximum Velocity Error:  0.36E-01 on Mesh 1 at (10,6,14)
       Maximum Pressure Error:  0.20E+02 on Mesh 1 at (7,7,14)
       ---------------------------------------------------------------
       Mesh    1
       Max CFL number:  0.88E+00 at (7,7,14)
       Max divergence:  0.83E+00 at (9,8,1)
       Min divergence: -0.46E+00 at (6,7,4)
       Max VN number:   0.35E+00 at (8,4,1)
       Total Heat Release Rate:             38.679 kW
       Radiation Loss to Boundaries:       -12.890 kW
       Mesh    2
       Max CFL number:  0.60E+00 at (1,7,15)
       Max divergence:  0.19E+00 at (3,4,8)
       Min divergence: -0.25E+00 at (7,5,7)
       Max VN number:   0.46E+00 at (4,6,1)
       Total Heat Release Rate:              1.037 kW
       Radiation Loss to Boundaries:         0.279 kW
       Mesh    3
       Max CFL number:  0.68E+00 at (10,3,15)
       Max divergence:  0.85E+00 at (9,1,1)
       Min divergence: -0.33E+00 at (7,2,5)
       Max VN number:   0.18E+00 at (8,5,10)
       Total Heat Release Rate:             33.843 kW
       Radiation Loss to Boundaries:       -10.050 kW
       Mesh    4
       Max CFL number:  0.63E+00 at (1,3,12)
       Max divergence:  0.55E-01 at (1,5,3)
       Min divergence: -0.12E+00 at (1,4,12)
       Max VN number:   0.14E+00 at (1,3,12)
       Total Heat Release Rate:              0.075 kW
       Radiation Loss to Boundaries:         0.343 kW
 
       Time Step     2000   December 16, 2024  10:04:10
       Step Size:    0.393E-01 s, Total Time:      50.13 s
       Pressure Iterations: 2
       Maximum Velocity Error:  0.30E-01 on Mesh 3 at (10,6,13)
       Maximum Pressure Error:  0.73E+01 on Mesh 3 at (7,5,9)
       ---------------------------------------------------------------
       Mesh    1
       Max CFL number:  0.86E+00 at (8,8,14)
       Max divergence:  0.61E-01 at (4,10,4)
       Min divergence: -0.72E-01 at (9,10,13)
       Max VN number:   0.37E+00 at (6,5,1)
       Total Heat Release Rate:              0.016 kW
       Radiation Loss to Boundaries:         0.129 kW
       Mesh    2
       Max CFL number:  0.46E+00 at (1,10,14)
       Max divergence:  0.21E-01 at (1,8,12)
       Min divergence: -0.16E-01 at (1,10,9)
       Max VN number:   0.18E+00 at (1,8,1)
       Radiation Loss to Boundaries:         0.059 kW
       Mesh    3
       Max CFL number:  0.92E+00 at (10,7,12)
       Max divergence:  0.21E+00 at (6,3,7)
       Min divergence: -0.29E+00 at (7,3,1)
       Max VN number:   0.42E+00 at (7,3,1)
       Total Heat Release Rate:              0.856 kW
       Radiation Loss to Boundaries:         0.295 kW
       Mesh    4
       Max CFL number:  0.81E+00 at (1,5,14)
       Max divergence:  0.67E-01 at (1,7,14)
       Min divergence: -0.81E-01 at (1,6,11)
       Max VN number:   0.20E+00 at (1,6,11)
       Total Heat Release Rate:              0.008 kW
       Radiation Loss to Boundaries:         0.136 kW
 
       Time Step     2088   December 16, 2024  10:04:14
       Step Size:    0.113E+00 s, Total Time:      55.00 s
       Pressure Iterations: 1
       Maximum Velocity Error:  0.43E-01 on Mesh 1 at (6,10,12)
       Maximum Pressure Error:  0.45E-01 on Mesh 3 at (1,2,10)
       ---------------------------------------------------------------
       Mesh    1
       Max CFL number:  0.64E+00 at (5,10,9)
       Max divergence:  0.20E-02 at (5,10,14)
       Min divergence: -0.22E-02 at (6,10,14)
       Max VN number:   0.59E+00 at (2,9,1)
       Radiation Loss to Boundaries:        -0.002 kW
       Mesh    2
       Max CFL number:  0.40E+00 at (1,10,4)
       Max divergence:  0.87E-03 at (1,10,5)
       Min divergence: -0.12E-02 at (2,10,5)
       Max VN number:   0.36E+00 at (9,4,1)
       Mesh    3
       Max CFL number:  0.74E+00 at (4,4,14)
       Max divergence:  0.22E-02 at (7,1,7)
       Min divergence: -0.29E-02 at (3,7,8)
       Max VN number:   0.70E+00 at (9,2,1)
       Radiation Loss to Boundaries:        -0.004 kW
       Mesh    4
       Max CFL number:  0.54E+00 at (1,2,4)
       Max divergence:  0.10E-02 at (1,2,1)
       Min divergence: -0.98E-03 at (1,3,10)
       Max VN number:   0.39E+00 at (2,3,1)
 


 Time Stepping Wall Clock Time (s):      110.982
 Total Elapsed Wall Clock Time (s):      116.050

STOP: FDS completed successfully (CHID: fixed_burner)
