
 Fire Dynamics Simulator

 Current Date     : January 20, 2025  10:02:39
 Revision         : FDS-6.9.1-0-g889da6a-release
 Revision Date    : Sun Apr 7 17:05:06 2024 -0400
 Compiler         : Intel(R) Fortran Intel(R) 64 Compiler Classic for applications running on Intel(R) 64, Version 2021.7.1 Build 20221019_000000
 Compilation Date : Apr 09, 2024 13:24:51

 Number of MPI Processes:  1

 MPI version: 3.1
 MPI library version: Intel(R) MPI Library 2021.6 for Linux* OS


 Job TITLE        : Fixed Burner Simulation
 Job ID string    : fixed_burner


 Grid Dimensions, Mesh     1

   Cells in the X Direction            16
   Cells in the Y Direction            16
   Cells in the Z Direction            20
   Number of Grid Cells              5120


 Physical Dimensions, Mesh     1

   Length (m)                      32.000
   Width  (m)                      32.000
   Height (m)                      20.000

 Grid Dimensions, Mesh     2

   Cells in the X Direction            16
   Cells in the Y Direction            16
   Cells in the Z Direction            20
   Number of Grid Cells              5120


 Physical Dimensions, Mesh     2

   Length (m)                      32.000
   Width  (m)                      32.000
   Height (m)                      20.000

 Grid Dimensions, Mesh     3

   Cells in the X Direction            16
   Cells in the Y Direction            16
   Cells in the Z Direction            20
   Number of Grid Cells              5120


 Physical Dimensions, Mesh     3

   Length (m)                      32.000
   Width  (m)                      32.000
   Height (m)                      20.000

 Grid Dimensions, Mesh     4

   Cells in the X Direction            16
   Cells in the Y Direction            16
   Cells in the Z Direction            20
   Number of Grid Cells              5120


 Physical Dimensions, Mesh     4

   Length (m)                      32.000
   Width  (m)                      32.000
   Height (m)                      20.000

 Grid Dimensions, Mesh     5

   Cells in the X Direction            16
   Cells in the Y Direction            16
   Cells in the Z Direction            20
   Number of Grid Cells              5120


 Physical Dimensions, Mesh     5

   Length (m)                      32.000
   Width  (m)                      32.000
   Height (m)                      20.000

 Grid Dimensions, Mesh     6

   Cells in the X Direction            16
   Cells in the Y Direction            16
   Cells in the Z Direction            20
   Number of Grid Cells              5120


 Physical Dimensions, Mesh     6

   Length (m)                      32.000
   Width  (m)                      32.000
   Height (m)                      20.000

 Grid Dimensions, Mesh     7

   Cells in the X Direction            16
   Cells in the Y Direction            16
   Cells in the Z Direction            20
   Number of Grid Cells              5120


 Physical Dimensions, Mesh     7

   Length (m)                      32.000
   Width  (m)                      32.000
   Height (m)                      20.000

 Grid Dimensions, Mesh     8

   Cells in the X Direction            16
   Cells in the Y Direction            16
   Cells in the Z Direction            20
   Number of Grid Cells              5120


 Physical Dimensions, Mesh     8

   Length (m)                      32.000
   Width  (m)                      32.000
   Height (m)                      20.000

 Grid Dimensions, Mesh     9

   Cells in the X Direction            16
   Cells in the Y Direction            16
   Cells in the Z Direction            20
   Number of Grid Cells              5120


 Physical Dimensions, Mesh     9

   Length (m)                      32.000
   Width  (m)                      32.000
   Height (m)                      20.000

 Miscellaneous Parameters

   Total Number of Grid Cells       46080
   Maximum Cell Aspect Ratio        2.000
   Initial Time Step (s)            0.567
   CFL Velocity Norm                    2
   Simulation Start Time (s)          0.0
   Simulation End Time (s)           70.0
   Background Pressure (Pa)     101325.00
   Ambient Temperature (C)          20.00

   3D Cartesian
   VLES Calculation
   Eddy Viscosity Model:  Deardorff (C_DEARDORFF = 0.10)
   Surface INERT Eddy Viscosity Model:  WALE (C_WALE = 0.60)
   Surface BURNER_template Eddy Viscosity Model:  WALE (C_WALE = 0.60)
   Turbulent Prandtl Number:         0.50
   Turbulent Schmidt Number:         0.50


 Pressure solver information

   Solver:                            FFT
   Velocity tolerance (m/s):    7.937E-01
   Press eqn res tol (1/s^2):   2.000E+01
   Max pressure iterations:            10


 Background Stratification

      Z (m)     P_0 (Pa)    TMP_0 (C)
   ------------------------------------
       19.50    101096.64     20.00
       18.50    101108.34     20.00
       17.50    101120.04     20.00
       16.50    101131.73     20.00
       15.50    101143.43     20.00
       14.50    101155.13     20.00
       13.50    101166.84     20.00
       12.50    101178.54     20.00
       11.50    101190.25     20.00
       10.50    101201.95     20.00
        9.50    101213.66     20.00
        8.50    101225.37     20.00
        7.50    101237.08     20.00
        6.50    101248.79     20.00
        5.50    101260.51     20.00
        4.50    101272.22     20.00
        3.50    101283.94     20.00
        2.50    101295.65     20.00
        1.50    101307.37     20.00
        0.50    101319.09     20.00


 Mass Fraction Transformation Matrix to Convert Species Mixtures (Columns) to Primitive Species (Rows)

                         AIR       CELLULOS  PRODUCTS
   NITROGEN              0.762470  0.000000  0.637772
   OXYGEN                0.230997  0.000000  0.000000
   CARBON DIOXIDE        0.000591  0.000000  0.266238
   WATER VAPOR           0.005941  0.000000  0.095826
   CARBON MONOXIDE       0.000000  0.000000  0.000000
   SOOT                  0.000000  0.000000  0.000164
   HYDROGEN              0.000000  0.000000  0.000000
   HYDROGEN CYANIDE      0.000000  0.000000  0.000000
   CELLULOSE             0.000000  1.000000  0.000000


 Primitive Species Information

   NITROGEN
   Gas Species
   Molecular Weight (g/mol)                28.01340
   Ambient Density (kg/m^3)                1.165
           Enthalpy of Formation (J/kg)  0.000E+00

   OXYGEN
   Gas Species
   Molecular Weight (g/mol)                31.99880
   Ambient Density (kg/m^3)                1.330
           Enthalpy of Formation (J/kg)  0.000E+00

   CARBON DIOXIDE
   Gas Species
   Molecular Weight (g/mol)                44.00950
   Ambient Density (kg/m^3)                1.830
           Enthalpy of Formation (J/kg) -8.941E+06

   WATER VAPOR
   Gas Species
   Molecular Weight (g/mol)                18.01528
   Ambient Density (kg/m^3)                0.749
           Enthalpy of Formation (J/kg) -1.342E+07

   CARBON MONOXIDE
   Gas Species
   Molecular Weight (g/mol)                28.01010
   Ambient Density (kg/m^3)                1.164
           Enthalpy of Formation (J/kg) -3.946E+06

   SOOT
   Gas Species
   Molecular Weight (g/mol)                12.01070
   Ambient Density (kg/m^3)                0.499
           Enthalpy of Formation (J/kg)  0.000E+00

   HYDROGEN
   Gas Species
   Molecular Weight (g/mol)                 2.01588
   Ambient Density (kg/m^3)                0.084
           Enthalpy of Formation (J/kg)  0.000E+00

   HYDROGEN CYANIDE
   Gas Species
   Molecular Weight (g/mol)                27.02534
   Ambient Density (kg/m^3)                1.123
           Enthalpy of Formation (J/kg)  4.924E+06

   CELLULOSE
   Gas Species
   Molecular Weight (g/mol)               162.14060
   Ambient Density (kg/m^3)                6.740
   Assumed Enthalpy of Formation (J/kg) -6.509E+06


 Tracked (Lumped) Species Information

   AIR
   Molecular Weight (g/mol)            28.75198
   Ambient Density (kg/m^3)            1.195
   Initial Mass Fraction               1.000
   Enthalpy of Formation (J/kg)     -8.504E+04

   Sub Species                    Mass Fraction     Mole Fraction
   NITROGEN                       7.624699E-01      7.825727E-01
   OXYGEN                         2.309974E-01      2.075588E-01
   CARBON DIOXIDE                 5.914650E-04      3.864118E-04
   WATER VAPOR                    5.941209E-03      9.482037E-03
 
     Viscosity (kg/m/s) Ambient,  293 K:  1.796E-05
                                  500 K:  2.612E-05
                                 1000 K:  4.125E-05
                                 1500 K:  5.371E-05
                                 2000 K:  6.476E-05
   Therm. Cond. (W/m/K) Ambient,  293 K:  2.556E-02
                                  500 K:  3.814E-02
                                 1000 K:  6.686E-02
                                 1500 K:  9.249E-02
                                 2000 K:  1.153E-01
        Enthalpy (J/kg) Ambient,  293 K: -9.012E+04
                                  500 K:  1.222E+05
                                 1000 K:  6.721E+05
                                 1500 K:  1.270E+06
                                 2000 K:  1.896E+06
    Spec. Heat (J/kg/K) Ambient,  293 K:  1.016E+03
                                  500 K:  1.042E+03
                                 1000 K:  1.156E+03
                                 1500 K:  1.229E+03
                                 2000 K:  1.270E+03
   Diff. Coeff. (m^2/s) Ambient,  293 K:  1.991E-05
                                  500 K:  4.961E-05
                                 1000 K:  1.580E-04
                                 1500 K:  3.095E-04
                                 2000 K:  4.984E-04
 Gibbs Energy Amb. (kJ/mol),  293 K: -5.873E+01
                                  500 K: -1.007E+02
                                 1000 K: -2.117E+02
                                 1500 K: -3.312E+02
                                 2000 K: -4.568E+02

   CELLULOSE
   Molecular Weight (g/mol)           162.14060
   Ambient Density (kg/m^3)            6.740
   Initial Mass Fraction               0.000
   Enthalpy of Formation (J/kg)     -6.509E+06

   Sub Species                    Mass Fraction     Mole Fraction
   CELLULOSE                      1.000000E+00      1.000000E+00
 
     Viscosity (kg/m/s) Ambient,  293 K:  4.186E-05
                                  500 K:  6.043E-05
                                 1000 K:  9.499E-05
                                 1500 K:  1.236E-04
                                 2000 K:  1.489E-04
   Therm. Cond. (W/m/K) Ambient,  293 K:  1.058E-02
                                  500 K:  1.528E-02
                                 1000 K:  2.401E-02
                                 1500 K:  3.124E-02
                                 2000 K:  3.765E-02
        Enthalpy (J/kg) Ambient,  293 K:  5.261E+04
                                  500 K:  8.974E+04
                                 1000 K:  1.795E+05
                                 1500 K:  2.692E+05
                                 2000 K:  3.590E+05
    Spec. Heat (J/kg/K) Ambient,  293 K:  1.795E+02
                                  500 K:  1.795E+02
                                 1000 K:  1.795E+02
                                 1500 K:  1.795E+02
                                 2000 K:  1.795E+02
   Diff. Coeff. (m^2/s) Ambient,  293 K:  1.521E-05
                                  500 K:  3.779E-05
                                 1000 K:  1.201E-04
                                 1500 K:  2.351E-04
                                 2000 K:  3.786E-04

   PRODUCTS
   Molecular Weight (g/mol)            29.28343
   Ambient Density (kg/m^3)            1.217
   Initial Mass Fraction               0.000
   Enthalpy of Formation (J/kg)     -3.667E+06

   Sub Species                    Mass Fraction     Mole Fraction
   NITROGEN                       6.377724E-01      6.666867E-01
   CARBON DIOXIDE                 2.662383E-01      1.771520E-01
   WATER VAPOR                    9.582572E-02      1.557625E-01
   CARBON MONOXIDE                0.000000E+00      0.000000E+00
   SOOT                           1.635442E-04      3.987390E-04
   HYDROGEN CYANIDE               0.000000E+00      0.000000E+00
 
     Viscosity (kg/m/s) Ambient,  293 K:  1.599E-05
                                  500 K:  2.384E-05
                                 1000 K:  3.896E-05
                                 1500 K:  5.145E-05
                                 2000 K:  6.245E-05
   Therm. Cond. (W/m/K) Ambient,  293 K:  2.281E-02
                                  500 K:  3.578E-02
                                 1000 K:  6.692E-02
                                 1500 K:  9.594E-02
                                 2000 K:  1.219E-01
        Enthalpy (J/kg) Ambient,  293 K: -3.672E+06
                                  500 K: -3.445E+06
                                 1000 K: -2.838E+06
                                 1500 K: -2.162E+06
                                 2000 K: -1.447E+06
    Spec. Heat (J/kg/K) Ambient,  293 K:  1.065E+03
                                  500 K:  1.131E+03
                                 1000 K:  1.293E+03
                                 1500 K:  1.398E+03
                                 2000 K:  1.460E+03
   Diff. Coeff. (m^2/s) Ambient,  293 K:  1.920E-05
                                  500 K:  4.880E-05
                                 1000 K:  1.577E-04
                                 1500 K:  3.101E-04
                                 2000 K:  5.002E-04
 Gibbs Energy Amb. (kJ/mol),  293 K: -1.857E+02
                                  500 K: -2.284E+02
                                 1000 K: -3.424E+02
                                 1500 K: -4.665E+02
                                 2000 K: -5.978E+02


 Gas Phase Reaction Information

      Fuel                                           Heat of Combustion (kJ/kg)
      CELLULOSE                                                      15476.9800
      EPUMO2:                                                        13100.0000

      Primitive Species Stoich. Coeff.
      Species ID                                                          Molar
      NITROGEN                                                        -0.000000
      OXYGEN                                                          -5.986500
      CARBON DIOXIDE                                                   5.986500
      WATER VAPOR                                                      5.000000
      SOOT                                                             0.013500
      CELLULOSE                                                       -1.000000

      Tracked (Lumped) Species Stoich. Coeff.
      Species ID                                             Molar         Mass
      AIR                                               -28.842428    -5.114555
      CELLULOSE                                          -1.000000    -1.000000
      PRODUCTS                                           33.855927     6.114555

      Reaction Kinetics

      Fast chemistry

      ODE Solver:  EXPLICIT EULER

      Extinction Model:  EXTINCTION 1
      Auto-Ignition Temperature (C):            -273.1
      Critical Flame Temperature (C):           1427.0

      Prescribed Radiative Fraction:             0.350


 Material Information


 Surface Conditions

   0 INERT (DEFAULT)

   1 BURNER_template
     HRR Per Unit Area (kW/m2)       1000.0
     CELLULOSE Mass Flux (kg/s/m2)   6.461E-02

   2 OPEN
     Passive Vent to Atmosphere

   3 MIRROR
     Symmetry Plane

   4 INTERPOLATED

   5 PERIODIC

   6 HVAC

   7 MASSLESS TRACER

   8 DROPLET

   9 MASSLESS TARGET

  10 PERIODIC FLOW ONLY


 Lagrangian Particle Classes


 Cut-off Density and Temperature

    Minimum Temperature:  -259.1 C
    Maximum Temperature:  2726.8 C
    Minimum Density:  1.195E-01 kg/m3
    Maximum Density:  2.823E+02 kg/m3


 Slice File Information, Mesh     1

   1 Nodes:   0  16   1   1   0  20, Quantity: TEMPERATURE
   2 Nodes:   0  16   1   1   0  20, Quantity: U-VELOCITY
   3 Nodes:   0  16   1   1   0  20, Quantity: V-VELOCITY
   4 Nodes:   0  16   1   1   0  20, Quantity: W-VELOCITY
   5 Nodes:   0  16   1   1   0  20, Quantity: VELOCITY
   6 Nodes:   0  16   1   1   0  20, Quantity: U-VELOCITY
   7 Nodes:   0  16   1   1   0  20, Quantity: V-VELOCITY
   8 Nodes:   0  16   1   1   0  20, Quantity: W-VELOCITY
   9 Nodes:   0  16   0  16   0   0, Quantity: HRRPUV
  10 Nodes:   0  16   0   0   0  20, Quantity: HRRPUV
  11 Nodes:   0  16   0  16   0   0, Quantity: TEMPERATURE


 Slice File Information, Mesh     2

   1 Nodes:   0  16   1   1   0  20, Quantity: TEMPERATURE
   2 Nodes:   0  16   1   1   0  20, Quantity: U-VELOCITY
   3 Nodes:   0  16   1   1   0  20, Quantity: V-VELOCITY
   4 Nodes:   0  16   1   1   0  20, Quantity: W-VELOCITY
   5 Nodes:   0  16   1   1   0  20, Quantity: VELOCITY
   6 Nodes:   0  16   1   1   0  20, Quantity: U-VELOCITY
   7 Nodes:   0  16   1   1   0  20, Quantity: V-VELOCITY
   8 Nodes:   0  16   1   1   0  20, Quantity: W-VELOCITY
   9 Nodes:   0  16   0  16   0   0, Quantity: HRRPUV
  10 Nodes:   0  16   0   0   0  20, Quantity: HRRPUV
  11 Nodes:   0  16   0  16   0   0, Quantity: TEMPERATURE


 Slice File Information, Mesh     3

   1 Nodes:   0  16   1   1   0  20, Quantity: TEMPERATURE
   2 Nodes:   0  16   1   1   0  20, Quantity: U-VELOCITY
   3 Nodes:   0  16   1   1   0  20, Quantity: V-VELOCITY
   4 Nodes:   0  16   1   1   0  20, Quantity: W-VELOCITY
   5 Nodes:   0  16   1   1   0  20, Quantity: VELOCITY
   6 Nodes:   0  16   1   1   0  20, Quantity: U-VELOCITY
   7 Nodes:   0  16   1   1   0  20, Quantity: V-VELOCITY
   8 Nodes:   0  16   1   1   0  20, Quantity: W-VELOCITY
   9 Nodes:   0  16   0  16   0   0, Quantity: HRRPUV
  10 Nodes:   0  16   0   0   0  20, Quantity: HRRPUV
  11 Nodes:   0  16   0  16   0   0, Quantity: TEMPERATURE


 Slice File Information, Mesh     4

   1 Nodes:   0  16   0  16   0   0, Quantity: HRRPUV
   2 Nodes:   0  16   0  16   0   0, Quantity: TEMPERATURE


 Slice File Information, Mesh     5

   1 Nodes:   0  16   0  16   0   0, Quantity: HRRPUV
   2 Nodes:   0  16   0  16   0   0, Quantity: TEMPERATURE


 Slice File Information, Mesh     6

   1 Nodes:   0  16   0  16   0   0, Quantity: HRRPUV
   2 Nodes:   0  16   0  16   0   0, Quantity: TEMPERATURE


 Slice File Information, Mesh     7

   1 Nodes:   0  16   0  16   0   0, Quantity: HRRPUV
   2 Nodes:   0  16   0  16   0   0, Quantity: TEMPERATURE


 Slice File Information, Mesh     8

   1 Nodes:   0  16   0  16   0   0, Quantity: HRRPUV
   2 Nodes:   0  16   0  16   0   0, Quantity: TEMPERATURE


 Slice File Information, Mesh     9

   1 Nodes:   0  16   0  16   0   0, Quantity: HRRPUV
   2 Nodes:   0  16   0  16   0   0, Quantity: TEMPERATURE


 Boundary File Information

   1 Quantity: RADIATIVE HEAT FLUX
   2 Quantity: WALL TEMPERATURE
   3 Quantity: TOTAL HEAT FLUX


 Radiation Model Information

   Number of control angles  104
   Time step increment         3
   Angle increment             5
   Theta band N_phi   Solid angle
     1:        4     0.120
     2:       12     0.114
     3:       16     0.127
     4:       20     0.120
     5:       20     0.120
     6:       16     0.127
     7:       12     0.114
     8:        4     0.120
   Using gray gas absorption.
   Mean beam length  1.000E-01 m
 
 

 Run Time Diagnostics

       Time Step        1   January 20, 2025  10:02:40
       Step Size:    0.567E+00 s, Total Time:       0.57 s
       Pressure Iterations: 1
       Maximum Velocity Error:  0.53E-04 on Mesh 5 at (15,16,2)
       Maximum Pressure Error:  0.15E-07 on Mesh 1 at (6,2,16)
       ---------------------------------------------------------------
       Mesh    1
       Max CFL number:  0.98E-02 at (12,6,18)
       Max divergence:  0.11E-05 at (5,4,2)
       Min divergence: -0.89E-06 at (8,14,13)
       Max VN number:   0.67E-02 at (8,13,5)
       Radiation Loss to Boundaries:        -0.002 kW
       Mesh    2
       Max CFL number:  0.10E-01 at (8,15,4)
       Max divergence:  0.13E-05 at (11,10,2)
       Min divergence: -0.94E-06 at (7,6,4)
       Max VN number:   0.82E-02 at (15,3,1)
       Radiation Loss to Boundaries:        -0.002 kW
       Mesh    3
       Max CFL number:  0.97E-02 at (6,9,10)
       Max divergence:  0.11E-05 at (11,6,2)
       Min divergence: -0.84E-06 at (9,9,18)
       Max VN number:   0.95E-02 at (2,14,1)
       Radiation Loss to Boundaries:        -0.002 kW
       Mesh    4
       Max CFL number:  0.10E-01 at (3,5,2)
       Max divergence:  0.12E-05 at (3,13,2)
       Min divergence: -0.90E-06 at (13,5,19)
       Max VN number:   0.82E-02 at (3,6,1)
       Radiation Loss to Boundaries:        -0.002 kW
       Mesh    5
       Max CFL number:  0.99E-02 at (4,13,17)
       Max divergence:  0.13E-05 at (13,2,2)
       Min divergence: -0.84E-06 at (14,12,17)
       Max VN number:   0.84E-02 at (8,7,1)
       Mesh    6
       Max CFL number:  0.99E-02 at (15,6,9)
       Max divergence:  0.15E-05 at (8,6,2)
       Min divergence: -0.84E-06 at (10,15,9)
       Max VN number:   0.64E-02 at (13,2,14)
       Radiation Loss to Boundaries:        -0.002 kW
       Mesh    7
       Max CFL number:  0.95E-02 at (5,7,6)
       Max divergence:  0.12E-05 at (11,8,2)
       Min divergence: -0.82E-06 at (13,9,7)
       Max VN number:   0.72E-02 at (6,15,1)
       Radiation Loss to Boundaries:        -0.002 kW
       Mesh    8
       Max CFL number:  0.10E-01 at (2,14,17)
       Max divergence:  0.14E-05 at (13,13,2)
       Min divergence: -0.88E-06 at (6,6,14)
       Max VN number:   0.73E-02 at (7,15,1)
       Radiation Loss to Boundaries:        -0.002 kW
       Mesh    9
       Max CFL number:  0.99E-02 at (9,9,16)
       Max divergence:  0.15E-05 at (3,9,2)
       Min divergence: -0.88E-06 at (11,3,13)
       Max VN number:   0.75E-02 at (5,10,12)
       Radiation Loss to Boundaries:        -0.002 kW
 
       Time Step        2   January 20, 2025  10:02:40
       Step Size:    0.567E+00 s, Total Time:       1.13 s
       Pressure Iterations: 1
       Maximum Velocity Error:  0.19E-04 on Mesh 7 at (16,8,18)
       Maximum Pressure Error:  0.16E+01 on Mesh 1 at (1,1,1)
       ---------------------------------------------------------------
       Mesh    1
       Max CFL number:  0.98E-02 at (12,6,18)
       Max divergence:  0.64E+00 at (1,1,1)
       Min divergence: -0.62E-05 at (1,1,2)
       Max VN number:   0.67E-02 at (8,13,5)
       Total Heat Release Rate:            904.197 kW
       Radiation Loss to Boundaries:        -0.002 kW
       Mesh    2
       Max CFL number:  0.10E-01 at (8,15,4)
       Max divergence:  0.13E-05 at (11,10,2)
       Min divergence: -0.95E-06 at (7,6,4)
       Max VN number:   0.82E-02 at (15,3,1)
       Radiation Loss to Boundaries:        -0.002 kW
       Mesh    3
       Max CFL number:  0.97E-02 at (6,9,10)
       Max divergence:  0.11E-05 at (11,6,2)
       Min divergence: -0.84E-06 at (9,9,18)
       Max VN number:   0.95E-02 at (2,14,1)
       Radiation Loss to Boundaries:        -0.002 kW
       Mesh    4
       Max CFL number:  0.10E-01 at (3,5,2)
       Max divergence:  0.12E-05 at (3,13,2)
       Min divergence: -0.90E-06 at (13,5,19)
       Max VN number:   0.83E-02 at (3,6,1)
       Radiation Loss to Boundaries:        -0.002 kW
       Mesh    5
       Max CFL number:  0.98E-02 at (4,13,18)
       Max divergence:  0.13E-05 at (13,2,2)
       Min divergence: -0.84E-06 at (14,12,17)
       Max VN number:   0.85E-02 at (8,7,1)
       Mesh    6
       Max CFL number:  0.99E-02 at (15,6,9)
       Max divergence:  0.15E-05 at (8,6,2)
       Min divergence: -0.84E-06 at (10,15,9)
       Max VN number:   0.64E-02 at (13,2,14)
       Radiation Loss to Boundaries:        -0.002 kW
       Mesh    7
       Max CFL number:  0.95E-02 at (5,7,6)
       Max divergence:  0.12E-05 at (11,8,2)
       Min divergence: -0.82E-06 at (13,9,7)
       Max VN number:   0.72E-02 at (6,15,1)
       Radiation Loss to Boundaries:        -0.002 kW
       Mesh    8
       Max CFL number:  0.10E-01 at (2,14,17)
       Max divergence:  0.14E-05 at (13,13,2)
       Min divergence: -0.88E-06 at (6,6,14)
       Max VN number:   0.73E-02 at (7,15,1)
       Radiation Loss to Boundaries:        -0.002 kW
       Mesh    9
       Max CFL number:  0.99E-02 at (9,9,16)
       Max divergence:  0.15E-05 at (3,9,2)
       Min divergence: -0.88E-06 at (11,3,13)
       Max VN number:   0.74E-02 at (5,10,12)
       Radiation Loss to Boundaries:        -0.002 kW
 
       Time Step        3   January 20, 2025  10:02:40
       Step Size:    0.567E+00 s, Total Time:       1.70 s
       Pressure Iterations: 1
       Maximum Velocity Error:  0.17E-04 on Mesh 2 at (0,7,9)
       Maximum Pressure Error:  0.16E+01 on Mesh 1 at (1,1,1)
       ---------------------------------------------------------------
       Mesh    1
       Max CFL number:  0.49E+00 at (1,1,1)
       Max divergence:  0.74E+00 at (1,1,1)
       Min divergence: -0.86E-06 at (13,15,14)
       Max VN number:   0.11E+00 at (1,1,1)
       Total Heat Release Rate:           1710.705 kW
       Radiation Loss to Boundaries:      -391.723 kW
       Mesh    2
       Max CFL number:  0.10E-01 at (8,15,4)
       Max divergence:  0.13E-05 at (11,10,2)
       Min divergence: -0.95E-06 at (7,6,4)
       Max VN number:   0.82E-02 at (15,3,1)
       Mesh    3
       Max CFL number:  0.97E-02 at (6,9,10)
       Max divergence:  0.11E-05 at (11,6,2)
       Min divergence: -0.84E-06 at (9,9,18)
       Max VN number:   0.95E-02 at (2,14,1)
       Mesh    4
       Max CFL number:  0.10E-01 at (3,5,2)
       Max divergence:  0.12E-05 at (3,13,2)
       Min divergence: -0.90E-06 at (13,5,19)
       Max VN number:   0.83E-02 at (3,6,1)
       Mesh    5
       Max CFL number:  0.98E-02 at (4,13,18)
       Max divergence:  0.13E-05 at (13,2,2)
       Min divergence: -0.84E-06 at (14,12,17)
       Max VN number:   0.85E-02 at (8,7,1)
       Mesh    6
       Max CFL number:  0.99E-02 at (15,6,9)
       Max divergence:  0.15E-05 at (8,6,2)
       Min divergence: -0.84E-06 at (10,15,9)
       Max VN number:   0.64E-02 at (13,2,14)
       Radiation Loss to Boundaries:        -0.001 kW
       Mesh    7
       Max CFL number:  0.95E-02 at (5,7,6)
       Max divergence:  0.12E-05 at (11,8,2)
       Min divergence: -0.82E-06 at (13,9,7)
       Max VN number:   0.72E-02 at (6,15,1)
       Radiation Loss to Boundaries:        -0.001 kW
       Mesh    8
       Max CFL number:  0.10E-01 at (2,14,17)
       Max divergence:  0.14E-05 at (13,13,2)
       Min divergence: -0.88E-06 at (6,6,14)
       Max VN number:   0.72E-02 at (7,15,1)
       Mesh    9
       Max CFL number:  0.99E-02 at (9,9,16)
       Max divergence:  0.15E-05 at (3,9,2)
       Min divergence: -0.88E-06 at (11,3,13)
       Max VN number:   0.74E-02 at (5,10,12)
       Radiation Loss to Boundaries:        -0.001 kW
 
       Time Step        4   January 20, 2025  10:02:40
       Step Size:    0.567E+00 s, Total Time:       2.27 s
       Pressure Iterations: 1
       Maximum Velocity Error:  0.10E-04 on Mesh 1 at (6,16,2)
       Maximum Pressure Error:  0.73E+01 on Mesh 1 at (1,1,1)
       ---------------------------------------------------------------
       Mesh    1
       Max CFL number:  0.85E+00 at (1,1,1)
       Max divergence:  0.21E+00 at (1,1,2)
       Min divergence: -0.82E+00 at (1,1,1)
       Max VN number:   0.15E+00 at (1,1,1)
       Total Heat Release Rate:           2106.375 kW
       Radiation Loss to Boundaries:     -2858.117 kW
       Mesh    2
       Max CFL number:  0.10E-01 at (8,15,4)
       Max divergence:  0.13E-05 at (11,10,2)
       Min divergence: -0.95E-06 at (7,6,4)
       Max VN number:   0.82E-02 at (15,3,1)
       Mesh    3
       Max CFL number:  0.97E-02 at (6,9,10)
       Max divergence:  0.11E-05 at (11,6,2)
       Min divergence: -0.84E-06 at (9,9,18)
       Max VN number:   0.95E-02 at (2,14,1)
       Mesh    4
       Max CFL number:  0.10E-01 at (3,5,2)
       Max divergence:  0.12E-05 at (3,13,2)
       Min divergence: -0.90E-06 at (13,5,19)
       Max VN number:   0.83E-02 at (3,6,1)
       Mesh    5
       Max CFL number:  0.98E-02 at (4,13,18)
       Max divergence:  0.13E-05 at (13,2,2)
       Min divergence: -0.84E-06 at (14,12,17)
       Max VN number:   0.86E-02 at (8,7,1)
       Mesh    6
       Max CFL number:  0.98E-02 at (15,6,9)
       Max divergence:  0.15E-05 at (8,6,2)
       Min divergence: -0.84E-06 at (10,15,9)
       Max VN number:   0.64E-02 at (13,2,14)
       Radiation Loss to Boundaries:        -0.001 kW
       Mesh    7
       Max CFL number:  0.95E-02 at (5,7,6)
       Max divergence:  0.12E-05 at (11,8,2)
       Min divergence: -0.82E-06 at (13,9,7)
       Max VN number:   0.72E-02 at (6,15,1)
       Radiation Loss to Boundaries:        -0.001 kW
       Mesh    8
       Max CFL number:  0.10E-01 at (2,14,17)
       Max divergence:  0.14E-05 at (13,13,2)
       Min divergence: -0.88E-06 at (6,6,14)
       Max VN number:   0.72E-02 at (7,15,1)
       Mesh    9
       Max CFL number:  0.98E-02 at (9,9,16)
       Max divergence:  0.15E-05 at (3,9,2)
       Min divergence: -0.88E-06 at (11,3,13)
       Max VN number:   0.74E-02 at (5,10,12)
       Radiation Loss to Boundaries:        -0.001 kW
 
       Time Step        5   January 20, 2025  10:02:41
       Step Size:    0.270E+00 s, Total Time:       2.54 s
       Pressure Iterations: 1
       Maximum Velocity Error:  0.21E-04 on Mesh 2 at (0,7,1)
       Maximum Pressure Error:  0.82E+01 on Mesh 1 at (1,1,1)
       ---------------------------------------------------------------
       Mesh    1
       Max CFL number:  0.71E+00 at (1,1,1)
       Max divergence:  0.10E+01 at (1,1,1)
       Min divergence: -0.86E-06 at (13,15,14)
       Max VN number:   0.99E-01 at (1,1,1)
       Total Heat Release Rate:           2988.226 kW
       Radiation Loss to Boundaries:      -607.364 kW
       Mesh    2
       Max CFL number:  0.48E-02 at (8,15,4)
       Max divergence:  0.13E-05 at (11,10,2)
       Min divergence: -0.95E-06 at (7,6,4)
       Max VN number:   0.39E-02 at (15,3,1)
       Mesh    3
       Max CFL number:  0.46E-02 at (6,9,10)
       Max divergence:  0.11E-05 at (11,6,2)
       Min divergence: -0.84E-06 at (9,9,18)
       Max VN number:   0.45E-02 at (2,14,1)
       Mesh    4
       Max CFL number:  0.48E-02 at (3,5,2)
       Max divergence:  0.12E-05 at (3,13,2)
       Min divergence: -0.90E-06 at (13,5,19)
       Max VN number:   0.40E-02 at (3,6,1)
       Mesh    5
       Max CFL number:  0.47E-02 at (4,13,18)
       Max divergence:  0.13E-05 at (13,2,2)
       Min divergence: -0.84E-06 at (14,12,17)
       Max VN number:   0.41E-02 at (8,7,1)
       Mesh    6
       Max CFL number:  0.47E-02 at (15,6,9)
       Max divergence:  0.15E-05 at (8,6,2)
       Min divergence: -0.84E-06 at (10,15,9)
       Max VN number:   0.30E-02 at (13,2,14)
       Radiation Loss to Boundaries:        -0.001 kW
       Mesh    7
       Max CFL number:  0.45E-02 at (5,7,6)
       Max divergence:  0.12E-05 at (11,8,2)
       Min divergence: -0.82E-06 at (13,9,7)
       Max VN number:   0.34E-02 at (6,15,1)
       Radiation Loss to Boundaries:        -0.001 kW
       Mesh    8
       Max CFL number:  0.49E-02 at (2,14,17)
       Max divergence:  0.14E-05 at (13,13,2)
       Min divergence: -0.88E-06 at (6,6,14)
       Max VN number:   0.34E-02 at (7,15,1)
       Mesh    9
       Max CFL number:  0.47E-02 at (9,9,16)
       Max divergence:  0.15E-05 at (3,9,2)
       Min divergence: -0.88E-06 at (11,3,13)
       Max VN number:   0.35E-02 at (5,10,12)
       Radiation Loss to Boundaries:        -0.001 kW
 
       Time Step        6   January 20, 2025  10:02:41
       Step Size:    0.297E+00 s, Total Time:       2.83 s
       Pressure Iterations: 1
       Maximum Velocity Error:  0.13E-04 on Mesh 1 at (16,3,6)
       Maximum Pressure Error:  0.10E+02 on Mesh 1 at (1,1,1)
       ---------------------------------------------------------------
       Mesh    1
       Max CFL number:  0.96E+00 at (1,1,1)
       Max divergence:  0.39E+00 at (1,1,1)
       Min divergence: -0.30E+00 at (1,1,2)
       Max VN number:   0.25E+00 at (1,1,1)
       Total Heat Release Rate:           2503.143 kW
       Radiation Loss to Boundaries:     -1571.033 kW
       Mesh    2
       Max CFL number:  0.52E-02 at (8,15,4)
       Max divergence:  0.13E-05 at (11,10,2)
       Min divergence: -0.95E-06 at (7,6,4)
       Max VN number:   0.43E-02 at (15,3,1)
       Mesh    3
       Max CFL number:  0.51E-02 at (6,9,10)
       Max divergence:  0.11E-05 at (11,6,2)
       Min divergence: -0.84E-06 at (9,9,18)
       Max VN number:   0.50E-02 at (2,14,1)
       Mesh    4
       Max CFL number:  0.53E-02 at (3,5,2)
       Max divergence:  0.12E-05 at (3,13,2)
       Min divergence: -0.90E-06 at (13,5,19)
       Max VN number:   0.44E-02 at (3,6,1)
       Mesh    5
       Max CFL number:  0.51E-02 at (4,13,18)
       Max divergence:  0.13E-05 at (13,2,2)
       Min divergence: -0.84E-06 at (14,12,17)
       Max VN number:   0.45E-02 at (8,7,1)
       Mesh    6
       Max CFL number:  0.52E-02 at (15,6,9)
       Max divergence:  0.15E-05 at (8,6,2)
       Min divergence: -0.84E-06 at (10,15,9)
       Max VN number:   0.33E-02 at (7,4,10)
       Mesh    7
       Max CFL number:  0.50E-02 at (5,7,6)
       Max divergence:  0.12E-05 at (11,8,2)
       Min divergence: -0.82E-06 at (13,9,7)
       Max VN number:   0.37E-02 at (6,15,1)
       Mesh    8
       Max CFL number:  0.54E-02 at (2,14,17)
       Max divergence:  0.14E-05 at (13,13,2)
       Min divergence: -0.88E-06 at (6,6,14)
       Max VN number:   0.38E-02 at (7,15,1)
       Mesh    9
       Max CFL number:  0.52E-02 at (9,9,16)
       Max divergence:  0.15E-05 at (3,9,2)
       Min divergence: -0.88E-06 at (11,3,13)
       Max VN number:   0.39E-02 at (5,10,12)
 
       Time Step        7   January 20, 2025  10:02:42
       Step Size:    0.297E+00 s, Total Time:       3.13 s
       Pressure Iterations: 1
       Maximum Velocity Error:  0.71E-05 on Mesh 4 at (16,1,1)
       Maximum Pressure Error:  0.21E+01 on Mesh 1 at (1,1,1)
       ---------------------------------------------------------------
       Mesh    1
       Max CFL number:  0.99E+00 at (1,1,2)
       Max divergence:  0.46E+00 at (1,1,1)
       Min divergence: -0.84E-06 at (13,15,14)
       Max VN number:   0.23E+00 at (1,1,1)
       Total Heat Release Rate:           2464.347 kW
       Radiation Loss to Boundaries:      -635.063 kW
       Mesh    2
       Max CFL number:  0.52E-02 at (8,15,4)
       Max divergence:  0.13E-05 at (11,10,2)
       Min divergence: -0.95E-06 at (7,6,4)
       Max VN number:   0.43E-02 at (15,3,1)
       Mesh    3
       Max CFL number:  0.51E-02 at (6,9,10)
       Max divergence:  0.11E-05 at (11,6,2)
       Min divergence: -0.84E-06 at (9,9,18)
       Max VN number:   0.50E-02 at (2,14,1)
       Mesh    4
       Max CFL number:  0.53E-02 at (3,5,2)
       Max divergence:  0.12E-05 at (3,13,2)
       Min divergence: -0.90E-06 at (13,5,19)
       Max VN number:   0.44E-02 at (3,6,1)
       Mesh    5
       Max CFL number:  0.51E-02 at (4,13,18)
       Max divergence:  0.13E-05 at (13,2,2)
       Min divergence: -0.84E-06 at (14,12,17)
       Max VN number:   0.45E-02 at (8,7,1)
       Mesh    6
       Max CFL number:  0.51E-02 at (15,6,9)
       Max divergence:  0.15E-05 at (8,6,2)
       Min divergence: -0.84E-06 at (10,15,9)
       Max VN number:   0.33E-02 at (7,4,10)
       Mesh    7
       Max CFL number:  0.50E-02 at (5,7,6)
       Max divergence:  0.12E-05 at (11,8,2)
       Min divergence: -0.82E-06 at (13,9,7)
       Max VN number:   0.37E-02 at (6,15,1)
       Mesh    8
       Max CFL number:  0.54E-02 at (2,14,17)
       Max divergence:  0.14E-05 at (13,13,2)
       Min divergence: -0.88E-06 at (6,6,14)
       Max VN number:   0.37E-02 at (7,15,1)
       Mesh    9
       Max CFL number:  0.51E-02 at (9,9,16)
       Max divergence:  0.15E-05 at (3,9,2)
       Min divergence: -0.88E-06 at (11,3,13)
       Max VN number:   0.39E-02 at (5,10,12)
 
       Time Step        8   January 20, 2025  10:02:42
       Step Size:    0.229E+00 s, Total Time:       3.36 s
       Pressure Iterations: 1
       Maximum Velocity Error:  0.21E-04 on Mesh 1 at (6,16,1)
       Maximum Pressure Error:  0.63E+00 on Mesh 1 at (1,1,1)
       ---------------------------------------------------------------
       Mesh    1
       Max CFL number:  0.86E+00 at (1,1,3)
       Max divergence:  0.47E+00 at (1,1,1)
       Min divergence: -0.10E-01 at (1,1,3)
       Max VN number:   0.23E+00 at (1,1,2)
       Total Heat Release Rate:           2480.330 kW
       Radiation Loss to Boundaries:      -815.601 kW
       Mesh    2
       Max CFL number:  0.40E-02 at (8,15,4)
       Max divergence:  0.13E-05 at (11,10,2)
       Min divergence: -0.95E-06 at (7,6,4)
       Max VN number:   0.33E-02 at (15,3,1)
       Mesh    3
       Max CFL number:  0.39E-02 at (6,9,10)
       Max divergence:  0.11E-05 at (11,6,2)
       Min divergence: -0.84E-06 at (9,9,18)
       Max VN number:   0.38E-02 at (2,14,1)
       Mesh    4
       Max CFL number:  0.41E-02 at (3,5,2)
       Max divergence:  0.12E-05 at (3,13,2)
       Min divergence: -0.90E-06 at (13,5,19)
       Max VN number:   0.34E-02 at (3,6,1)
       Mesh    5
       Max CFL number:  0.39E-02 at (4,13,18)
       Max divergence:  0.13E-05 at (13,2,2)
       Min divergence: -0.84E-06 at (14,12,17)
       Max VN number:   0.35E-02 at (8,7,1)
       Mesh    6
       Max CFL number:  0.40E-02 at (15,6,9)
       Max divergence:  0.15E-05 at (8,6,2)
       Min divergence: -0.84E-06 at (10,15,9)
       Max VN number:   0.26E-02 at (7,4,10)
       Mesh    7
       Max CFL number:  0.38E-02 at (5,7,6)
       Max divergence:  0.12E-05 at (11,8,2)
       Min divergence: -0.82E-06 at (13,9,7)
       Max VN number:   0.29E-02 at (6,15,1)
       Mesh    8
       Max CFL number:  0.42E-02 at (2,14,17)
       Max divergence:  0.14E-05 at (13,13,2)
       Min divergence: -0.88E-06 at (6,6,14)
       Max VN number:   0.29E-02 at (7,15,1)
       Mesh    9
       Max CFL number:  0.40E-02 at (9,9,16)
       Max divergence:  0.15E-05 at (3,9,2)
       Min divergence: -0.88E-06 at (11,3,13)
       Max VN number:   0.30E-02 at (5,10,12)
 
       Time Step        9   January 20, 2025  10:02:42
       Step Size:    0.229E+00 s, Total Time:       3.59 s
       Pressure Iterations: 1
       Maximum Velocity Error:  0.41E-04 on Mesh 2 at (0,6,1)
       Maximum Pressure Error:  0.66E+00 on Mesh 1 at (1,1,4)
       ---------------------------------------------------------------
       Mesh    1
       Max CFL number:  0.96E+00 at (1,1,4)
       Max divergence:  0.48E+00 at (1,1,1)
       Min divergence: -0.11E-01 at (1,1,4)
       Max VN number:   0.23E+00 at (1,1,2)
       Total Heat Release Rate:           2392.356 kW
       Radiation Loss to Boundaries:      -605.505 kW
       Mesh    2
       Max CFL number:  0.40E-02 at (8,15,4)
       Max divergence:  0.13E-05 at (11,10,2)
       Min divergence: -0.95E-06 at (7,6,4)
       Max VN number:   0.33E-02 at (15,3,1)
       Mesh    3
       Max CFL number:  0.39E-02 at (6,9,10)
       Max divergence:  0.11E-05 at (11,6,2)
       Min divergence: -0.84E-06 at (9,9,18)
       Max VN number:   0.38E-02 at (2,14,1)
       Mesh    4
       Max CFL number:  0.41E-02 at (3,5,2)
       Max divergence:  0.12E-05 at (3,13,2)
       Min divergence: -0.90E-06 at (13,5,19)
       Max VN number:   0.34E-02 at (3,6,1)
       Mesh    5
       Max CFL number:  0.39E-02 at (4,13,18)
       Max divergence:  0.13E-05 at (13,2,2)
       Min divergence: -0.84E-06 at (14,12,17)
       Max VN number:   0.35E-02 at (8,7,1)
       Mesh    6
       Max CFL number:  0.40E-02 at (15,6,9)
       Max divergence:  0.15E-05 at (8,6,2)
       Min divergence: -0.84E-06 at (10,15,9)
       Max VN number:   0.26E-02 at (7,4,10)
       Mesh    7
       Max CFL number:  0.38E-02 at (5,7,6)
       Max divergence:  0.12E-05 at (11,8,2)
       Min divergence: -0.82E-06 at (13,9,7)
       Max VN number:   0.29E-02 at (6,15,1)
       Mesh    8
       Max CFL number:  0.42E-02 at (2,14,17)
       Max divergence:  0.14E-05 at (13,13,2)
       Min divergence: -0.88E-06 at (6,6,14)
       Max VN number:   0.29E-02 at (7,15,1)
       Mesh    9
       Max CFL number:  0.40E-02 at (9,9,16)
       Max divergence:  0.15E-05 at (3,9,2)
       Min divergence: -0.88E-06 at (11,3,13)
       Max VN number:   0.30E-02 at (5,10,12)
 
       Time Step       10   January 20, 2025  10:02:43
       Step Size:    0.229E+00 s, Total Time:       3.82 s
       Pressure Iterations: 1
       Maximum Velocity Error:  0.50E-04 on Mesh 1 at (16,6,1)
       Maximum Pressure Error:  0.13E+01 on Mesh 1 at (1,1,3)
       ---------------------------------------------------------------
       Mesh    1
       Max CFL number:  0.10E+01 at (1,1,4)
       Max divergence:  0.48E+00 at (1,1,1)
       Min divergence: -0.37E-01 at (1,1,3)
       Max VN number:   0.27E+00 at (1,1,3)
       Total Heat Release Rate:           2319.041 kW
       Radiation Loss to Boundaries:      -542.048 kW
       Mesh    2
       Max CFL number:  0.40E-02 at (8,15,4)
       Max divergence:  0.13E-05 at (11,10,2)
       Min divergence: -0.95E-06 at (7,6,4)
       Max VN number:   0.33E-02 at (15,3,1)
       Mesh    3
       Max CFL number:  0.39E-02 at (6,9,10)
       Max divergence:  0.11E-05 at (11,6,2)
       Min divergence: -0.84E-06 at (9,9,18)
       Max VN number:   0.38E-02 at (2,14,1)
       Mesh    4
       Max CFL number:  0.41E-02 at (3,5,2)
       Max divergence:  0.12E-05 at (3,13,2)
       Min divergence: -0.90E-06 at (13,5,19)
       Max VN number:   0.34E-02 at (3,6,1)
       Mesh    5
       Max CFL number:  0.39E-02 at (4,13,18)
       Max divergence:  0.13E-05 at (13,2,2)
       Min divergence: -0.84E-06 at (14,12,17)
       Max VN number:   0.35E-02 at (8,7,1)
       Mesh    6
       Max CFL number:  0.39E-02 at (15,6,9)
       Max divergence:  0.15E-05 at (8,6,2)
       Min divergence: -0.84E-06 at (10,15,9)
       Max VN number:   0.26E-02 at (7,4,10)
       Mesh    7
       Max CFL number:  0.38E-02 at (5,7,6)
       Max divergence:  0.12E-05 at (11,8,2)
       Min divergence: -0.82E-06 at (13,9,7)
       Max VN number:   0.29E-02 at (6,15,1)
       Mesh    8
       Max CFL number:  0.42E-02 at (2,14,17)
       Max divergence:  0.14E-05 at (13,13,2)
       Min divergence: -0.88E-06 at (6,6,14)
       Max VN number:   0.29E-02 at (7,15,1)
       Mesh    9
       Max CFL number:  0.39E-02 at (9,9,16)
       Max divergence:  0.15E-05 at (3,9,2)
       Min divergence: -0.88E-06 at (11,3,13)
       Max VN number:   0.30E-02 at (5,10,12)
 
       Time Step       20   January 20, 2025  10:02:46
       Step Size:    0.144E+00 s, Total Time:       5.48 s
       Pressure Iterations: 1
       Maximum Velocity Error:  0.19E-04 on Mesh 1 at (16,16,1)
       Maximum Pressure Error:  0.35E+00 on Mesh 1 at (1,1,9)
       ---------------------------------------------------------------
       Mesh    1
       Max CFL number:  0.86E+00 at (1,1,7)
       Max divergence:  0.52E+00 at (1,1,1)
       Min divergence: -0.41E-01 at (1,1,8)
       Max VN number:   0.24E+00 at (1,1,7)
       Total Heat Release Rate:           2348.754 kW
       Radiation Loss to Boundaries:      -612.582 kW
       Mesh    2
       Max CFL number:  0.25E-02 at (8,15,4)
       Max divergence:  0.13E-05 at (11,10,2)
       Min divergence: -0.94E-06 at (7,6,4)
       Max VN number:   0.21E-02 at (15,3,1)
       Radiation Loss to Boundaries:         0.090 kW
       Mesh    3
       Max CFL number:  0.24E-02 at (6,9,10)
       Max divergence:  0.11E-05 at (11,6,2)
       Min divergence: -0.85E-06 at (9,9,18)
       Max VN number:   0.24E-02 at (2,14,1)
       Mesh    4
       Max CFL number:  0.26E-02 at (3,5,2)
       Max divergence:  0.12E-05 at (3,13,2)
       Min divergence: -0.89E-06 at (13,5,19)
       Max VN number:   0.22E-02 at (3,6,1)
       Radiation Loss to Boundaries:         0.015 kW
       Mesh    5
       Max CFL number:  0.25E-02 at (4,13,18)
       Max divergence:  0.13E-05 at (13,2,2)
       Min divergence: -0.84E-06 at (14,12,17)
       Max VN number:   0.22E-02 at (8,7,1)
       Mesh    6
       Max CFL number:  0.25E-02 at (15,6,9)
       Max divergence:  0.15E-05 at (8,6,2)
       Min divergence: -0.84E-06 at (10,15,9)
       Max VN number:   0.16E-02 at (7,4,10)
       Mesh    7
       Max CFL number:  0.24E-02 at (5,7,6)
       Max divergence:  0.12E-05 at (11,8,2)
       Min divergence: -0.82E-06 at (13,9,7)
       Max VN number:   0.18E-02 at (6,15,1)
       Mesh    8
       Max CFL number:  0.26E-02 at (2,14,17)
       Max divergence:  0.14E-05 at (13,13,2)
       Min divergence: -0.88E-06 at (6,6,14)
       Max VN number:   0.18E-02 at (7,15,1)
       Mesh    9
       Max CFL number:  0.25E-02 at (9,9,16)
       Max divergence:  0.15E-05 at (3,9,2)
       Min divergence: -0.88E-06 at (11,3,13)
       Max VN number:   0.19E-02 at (5,10,12)
 
       Time Step       30   January 20, 2025  10:02:49
       Step Size:    0.159E+00 s, Total Time:       6.98 s
       Pressure Iterations: 1
       Maximum Velocity Error:  0.12E-04 on Mesh 4 at (16,1,1)
       Maximum Pressure Error:  0.15E+00 on Mesh 1 at (1,1,4)
       ---------------------------------------------------------------
       Mesh    1
       Max CFL number:  0.84E+00 at (1,1,12)
       Max divergence:  0.54E+00 at (1,1,1)
       Min divergence: -0.27E-01 at (1,1,7)
       Max VN number:   0.24E+00 at (1,1,11)
       Total Heat Release Rate:           2389.040 kW
       Radiation Loss to Boundaries:      -524.281 kW
       Mesh    2
       Max CFL number:  0.27E-02 at (8,15,4)
       Max divergence:  0.25E-05 at (1,3,6)
       Min divergence: -0.90E-06 at (7,6,4)
       Max VN number:   0.23E-02 at (15,3,1)
       Radiation Loss to Boundaries:         0.719 kW
       Mesh    3
       Max CFL number:  0.27E-02 at (6,9,10)
       Max divergence:  0.11E-05 at (11,6,2)
       Min divergence: -0.85E-06 at (9,9,18)
       Max VN number:   0.26E-02 at (2,14,1)
       Mesh    4
       Max CFL number:  0.28E-02 at (3,5,2)
       Max divergence:  0.18E-05 at (1,1,6)
       Min divergence: -0.88E-06 at (13,5,19)
       Max VN number:   0.24E-02 at (3,6,1)
       Radiation Loss to Boundaries:         0.604 kW
       Mesh    5
       Max CFL number:  0.27E-02 at (4,13,18)
       Max divergence:  0.13E-05 at (13,2,2)
       Min divergence: -0.84E-06 at (14,12,17)
       Max VN number:   0.25E-02 at (8,7,1)
       Mesh    6
       Max CFL number:  0.27E-02 at (15,6,9)
       Max divergence:  0.15E-05 at (8,6,2)
       Min divergence: -0.84E-06 at (3,9,6)
       Max VN number:   0.18E-02 at (7,4,10)
       Mesh    7
       Max CFL number:  0.26E-02 at (5,7,6)
       Max divergence:  0.12E-05 at (11,8,2)
       Min divergence: -0.82E-06 at (13,9,7)
       Max VN number:   0.20E-02 at (6,15,1)
       Mesh    8
       Max CFL number:  0.29E-02 at (2,14,17)
       Max divergence:  0.14E-05 at (13,13,2)
       Min divergence: -0.89E-06 at (6,6,14)
       Max VN number:   0.19E-02 at (7,15,1)
       Mesh    9
       Max CFL number:  0.27E-02 at (9,9,16)
       Max divergence:  0.15E-05 at (3,9,2)
       Min divergence: -0.88E-06 at (11,3,13)
       Max VN number:   0.20E-02 at (5,10,12)
 
       Time Step       40   January 20, 2025  10:02:52
       Step Size:    0.175E+00 s, Total Time:       8.71 s
       Pressure Iterations: 1
       Maximum Velocity Error:  0.48E-05 on Mesh 7 at (16,1,1)
       Maximum Pressure Error:  0.25E+00 on Mesh 1 at (1,1,14)
       ---------------------------------------------------------------
       Mesh    1
       Max CFL number:  0.86E+00 at (1,1,12)
       Max divergence:  0.52E+00 at (1,1,1)
       Min divergence: -0.30E-01 at (1,1,12)
       Max VN number:   0.26E+00 at (1,1,11)
       Total Heat Release Rate:           2294.059 kW
       Radiation Loss to Boundaries:      -527.196 kW
       Mesh    2
       Max CFL number:  0.30E-02 at (8,15,4)
       Max divergence:  0.20E-05 at (1,1,6)
       Min divergence: -0.92E-06 at (7,6,4)
       Max VN number:   0.25E-02 at (15,3,1)
       Radiation Loss to Boundaries:         0.738 kW
       Mesh    3
       Max CFL number:  0.29E-02 at (6,9,10)
       Max divergence:  0.11E-05 at (11,6,2)
       Min divergence: -0.85E-06 at (9,9,18)
       Max VN number:   0.29E-02 at (2,14,1)
       Radiation Loss to Boundaries:         0.017 kW
       Mesh    4
       Max CFL number:  0.30E-02 at (3,5,2)
       Max divergence:  0.18E-05 at (2,1,7)
       Min divergence: -0.88E-06 at (13,5,19)
       Max VN number:   0.27E-02 at (3,6,1)
       Radiation Loss to Boundaries:         0.671 kW
       Mesh    5
       Max CFL number:  0.29E-02 at (4,13,18)
       Max divergence:  0.13E-05 at (13,2,2)
       Min divergence: -0.84E-06 at (14,12,17)
       Max VN number:   0.28E-02 at (8,7,1)
       Radiation Loss to Boundaries:         0.005 kW
       Mesh    6
       Max CFL number:  0.30E-02 at (15,6,9)
       Max divergence:  0.15E-05 at (8,6,2)
       Min divergence: -0.85E-06 at (3,9,6)
       Max VN number:   0.19E-02 at (7,4,10)
       Mesh    7
       Max CFL number:  0.28E-02 at (5,7,6)
       Max divergence:  0.12E-05 at (11,8,2)
       Min divergence: -0.82E-06 at (13,9,7)
       Max VN number:   0.22E-02 at (6,15,1)
       Radiation Loss to Boundaries:         0.008 kW
       Mesh    8
       Max CFL number:  0.31E-02 at (2,14,17)
       Max divergence:  0.14E-05 at (13,13,2)
       Min divergence: -0.89E-06 at (6,6,14)
       Max VN number:   0.21E-02 at (7,15,1)
       Mesh    9
       Max CFL number:  0.30E-02 at (9,9,16)
       Max divergence:  0.15E-05 at (3,9,2)
       Min divergence: -0.88E-06 at (11,3,13)
       Max VN number:   0.22E-02 at (5,10,12)
 
       Time Step       50   January 20, 2025  10:02:55
       Step Size:    0.175E+00 s, Total Time:      10.46 s
       Pressure Iterations: 1
       Maximum Velocity Error:  0.69E-05 on Mesh 2 at (0,16,1)
       Maximum Pressure Error:  0.52E-01 on Mesh 1 at (1,1,1)
       ---------------------------------------------------------------
       Mesh    1
       Max CFL number:  0.88E+00 at (1,1,19)
       Max divergence:  0.44E+00 at (1,1,1)
       Min divergence: -0.24E-01 at (1,1,9)
       Max VN number:   0.26E+00 at (1,1,10)
       Total Heat Release Rate:           2116.747 kW
       Radiation Loss to Boundaries:      -503.703 kW
       Mesh    2
       Max CFL number:  0.30E-02 at (8,15,4)
       Max divergence:  0.20E-05 at (1,1,6)
       Min divergence: -0.92E-06 at (7,6,4)
       Max VN number:   0.25E-02 at (15,3,1)
       Radiation Loss to Boundaries:         0.751 kW
       Mesh    3
       Max CFL number:  0.29E-02 at (6,9,10)
       Max divergence:  0.11E-05 at (11,6,2)
       Min divergence: -0.85E-06 at (9,9,18)
       Max VN number:   0.29E-02 at (2,14,1)
       Radiation Loss to Boundaries:         0.019 kW
       Mesh    4
       Max CFL number:  0.30E-02 at (3,5,2)
       Max divergence:  0.18E-05 at (2,1,7)
       Min divergence: -0.88E-06 at (13,5,19)
       Max VN number:   0.24E-02 at (3,6,1)
       Radiation Loss to Boundaries:         0.733 kW
       Mesh    5
       Max CFL number:  0.29E-02 at (4,13,18)
       Max divergence:  0.13E-05 at (13,2,2)
       Min divergence: -0.84E-06 at (14,12,17)
       Max VN number:   0.28E-02 at (8,7,1)
       Radiation Loss to Boundaries:         0.048 kW
       Mesh    6
       Max CFL number:  0.30E-02 at (15,6,9)
       Max divergence:  0.15E-05 at (8,6,2)
       Min divergence: -0.85E-06 at (3,9,6)
       Max VN number:   0.21E-02 at (3,2,1)
       Mesh    7
       Max CFL number:  0.28E-02 at (5,7,6)
       Max divergence:  0.12E-05 at (11,8,2)
       Min divergence: -0.82E-06 at (13,9,7)
       Max VN number:   0.22E-02 at (6,15,1)
       Radiation Loss to Boundaries:         0.011 kW
       Mesh    8
       Max CFL number:  0.31E-02 at (2,14,17)
       Max divergence:  0.14E-05 at (13,13,2)
       Min divergence: -0.89E-06 at (6,6,14)
       Max VN number:   0.21E-02 at (7,15,1)
       Mesh    9
       Max CFL number:  0.29E-02 at (9,9,16)
       Max divergence:  0.15E-05 at (3,9,2)
       Min divergence: -0.88E-06 at (11,3,13)
       Max VN number:   0.22E-02 at (5,10,12)
 
       Time Step       60   January 20, 2025  10:02:58
       Step Size:    0.175E+00 s, Total Time:      12.21 s
       Pressure Iterations: 1
       Maximum Velocity Error:  0.17E-04 on Mesh 1 at (16,7,1)
       Maximum Pressure Error:  0.56E+00 on Mesh 1 at (1,1,17)
       ---------------------------------------------------------------
       Mesh    1
       Max CFL number:  0.92E+00 at (1,1,12)
       Max divergence:  0.28E+00 at (1,1,1)
       Min divergence: -0.25E-01 at (1,1,11)
       Max VN number:   0.28E+00 at (1,1,12)
       Total Heat Release Rate:           1239.072 kW
       Radiation Loss to Boundaries:      -184.178 kW
       Mesh    2
       Max CFL number:  0.29E-02 at (8,15,4)
       Max divergence:  0.19E-05 at (1,1,6)
       Min divergence: -0.92E-06 at (7,6,4)
       Max VN number:   0.25E-02 at (15,3,1)
       Radiation Loss to Boundaries:         0.723 kW
       Mesh    3
       Max CFL number:  0.29E-02 at (6,9,10)
       Max divergence:  0.11E-05 at (11,6,2)
       Min divergence: -0.85E-06 at (9,9,18)
       Max VN number:   0.29E-02 at (2,14,1)
       Radiation Loss to Boundaries:         0.015 kW
       Mesh    4
       Max CFL number:  0.30E-02 at (3,5,2)
       Max divergence:  0.18E-05 at (2,1,7)
       Min divergence: -0.88E-06 at (13,5,19)
       Max VN number:   0.25E-02 at (3,6,1)
       Radiation Loss to Boundaries:         0.720 kW
       Mesh    5
       Max CFL number:  0.29E-02 at (4,13,18)
       Max divergence:  0.13E-05 at (13,2,2)
       Min divergence: -0.84E-06 at (14,12,17)
       Max VN number:   0.28E-02 at (8,7,1)
       Radiation Loss to Boundaries:         0.062 kW
       Mesh    6
       Max CFL number:  0.29E-02 at (15,6,9)
       Max divergence:  0.15E-05 at (8,6,2)
       Min divergence: -0.85E-06 at (3,9,6)
       Max VN number:   0.21E-02 at (3,2,1)
       Radiation Loss to Boundaries:         0.001 kW
       Mesh    7
       Max CFL number:  0.28E-02 at (5,7,6)
       Max divergence:  0.12E-05 at (11,8,2)
       Min divergence: -0.82E-06 at (13,9,7)
       Max VN number:   0.21E-02 at (6,15,1)
       Radiation Loss to Boundaries:         0.014 kW
       Mesh    8
       Max CFL number:  0.31E-02 at (2,14,17)
       Max divergence:  0.14E-05 at (13,13,2)
       Min divergence: -0.89E-06 at (6,6,14)
       Max VN number:   0.21E-02 at (7,15,1)
       Radiation Loss to Boundaries:         0.002 kW
       Mesh    9
       Max CFL number:  0.29E-02 at (9,9,16)
       Max divergence:  0.15E-05 at (3,9,2)
       Min divergence: -0.89E-06 at (11,3,13)
       Max VN number:   0.22E-02 at (5,10,12)
 
       Time Step       70   January 20, 2025  10:03:01
       Step Size:    0.175E+00 s, Total Time:      13.95 s
       Pressure Iterations: 1
       Maximum Velocity Error:  0.34E-04 on Mesh 1 at (16,12,1)
       Maximum Pressure Error:  0.19E-01 on Mesh 1 at (1,1,17)
       ---------------------------------------------------------------
       Mesh    1
       Max CFL number:  0.82E+00 at (1,1,20)
       Max divergence:  0.29E+00 at (1,1,1)
       Min divergence: -0.15E-01 at (1,1,19)
       Max VN number:   0.26E+00 at (1,1,19)
       Total Heat Release Rate:           1191.899 kW
       Radiation Loss to Boundaries:      -285.205 kW
       Mesh    2
       Max CFL number:  0.29E-02 at (8,15,4)
       Max divergence:  0.17E-05 at (1,1,6)
       Min divergence: -0.92E-06 at (7,6,4)
       Max VN number:   0.26E-02 at (15,3,1)
       Radiation Loss to Boundaries:         0.676 kW
       Mesh    3
       Max CFL number:  0.28E-02 at (6,9,10)
       Max divergence:  0.11E-05 at (11,6,2)
       Min divergence: -0.86E-06 at (9,9,18)
       Max VN number:   0.26E-02 at (2,14,1)
       Radiation Loss to Boundaries:         0.014 kW
       Mesh    4
       Max CFL number:  0.30E-02 at (3,5,2)
       Max divergence:  0.15E-05 at (5,1,8)
       Min divergence: -0.88E-06 at (13,5,19)
       Max VN number:   0.25E-02 at (3,6,1)
       Radiation Loss to Boundaries:         0.650 kW
       Mesh    5
       Max CFL number:  0.29E-02 at (4,13,18)
       Max divergence:  0.13E-05 at (13,2,2)
       Min divergence: -0.84E-06 at (14,12,17)
       Max VN number:   0.28E-02 at (8,7,1)
       Radiation Loss to Boundaries:         0.061 kW
       Mesh    6
       Max CFL number:  0.29E-02 at (15,6,9)
       Max divergence:  0.15E-05 at (8,6,2)
       Min divergence: -0.85E-06 at (3,9,6)
       Max VN number:   0.21E-02 at (3,2,1)
       Radiation Loss to Boundaries:         0.003 kW
       Mesh    7
       Max CFL number:  0.28E-02 at (5,7,6)
       Max divergence:  0.12E-05 at (11,8,2)
       Min divergence: -0.81E-06 at (13,9,7)
       Max VN number:   0.21E-02 at (6,15,1)
       Radiation Loss to Boundaries:         0.014 kW
       Mesh    8
       Max CFL number:  0.31E-02 at (2,14,17)
       Max divergence:  0.14E-05 at (13,13,2)
       Min divergence: -0.89E-06 at (6,6,14)
       Max VN number:   0.20E-02 at (7,15,1)
       Radiation Loss to Boundaries:         0.002 kW
       Mesh    9
       Max CFL number:  0.29E-02 at (3,2,8)
       Max divergence:  0.15E-05 at (3,9,2)
       Min divergence: -0.89E-06 at (11,3,13)
       Max VN number:   0.22E-02 at (5,10,12)
 
       Time Step       80   January 20, 2025  10:03:04
       Step Size:    0.233E+00 s, Total Time:      16.06 s
       Pressure Iterations: 1
       Maximum Velocity Error:  0.37E-04 on Mesh 2 at (1,16,1)
       Maximum Pressure Error:  0.11E-01 on Mesh 1 at (1,1,11)
       ---------------------------------------------------------------
       Mesh    1
       Max CFL number:  0.90E+00 at (1,1,9)
       Max divergence:  0.29E+00 at (1,1,1)
       Min divergence: -0.16E-01 at (1,1,8)
       Max VN number:   0.27E+00 at (1,1,9)
       Total Heat Release Rate:           1222.563 kW
       Radiation Loss to Boundaries:      -270.744 kW
       Mesh    2
       Max CFL number:  0.38E-02 at (8,15,4)
       Max divergence:  0.17E-05 at (1,1,6)
       Min divergence: -0.93E-06 at (7,6,4)
       Max VN number:   0.34E-02 at (15,3,1)
       Radiation Loss to Boundaries:         0.547 kW
       Mesh    3
       Max CFL number:  0.37E-02 at (6,9,10)
       Max divergence:  0.11E-05 at (11,6,2)
       Min divergence: -0.86E-06 at (9,9,18)
       Max VN number:   0.34E-02 at (2,14,1)
       Radiation Loss to Boundaries:         0.014 kW
       Mesh    4
       Max CFL number:  0.39E-02 at (3,5,2)
       Max divergence:  0.14E-05 at (2,1,7)
       Min divergence: -0.89E-06 at (13,5,19)
       Max VN number:   0.34E-02 at (3,6,1)
       Radiation Loss to Boundaries:         0.481 kW
       Mesh    5
       Max CFL number:  0.38E-02 at (4,13,18)
       Max divergence:  0.13E-05 at (13,2,2)
       Min divergence: -0.83E-06 at (14,12,17)
       Max VN number:   0.38E-02 at (8,7,1)
       Radiation Loss to Boundaries:         0.061 kW
       Mesh    6
       Max CFL number:  0.39E-02 at (15,6,9)
       Max divergence:  0.15E-05 at (8,6,2)
       Min divergence: -0.85E-06 at (3,9,6)
       Max VN number:   0.28E-02 at (3,2,1)
       Radiation Loss to Boundaries:         0.003 kW
       Mesh    7
       Max CFL number:  0.37E-02 at (5,7,6)
       Max divergence:  0.12E-05 at (11,8,2)
       Min divergence: -0.81E-06 at (13,9,7)
       Max VN number:   0.28E-02 at (6,15,1)
       Radiation Loss to Boundaries:         0.014 kW
       Mesh    8
       Max CFL number:  0.41E-02 at (2,14,17)
       Max divergence:  0.14E-05 at (13,13,2)
       Min divergence: -0.89E-06 at (6,6,14)
       Max VN number:   0.27E-02 at (7,15,1)
       Radiation Loss to Boundaries:         0.003 kW
       Mesh    9
       Max CFL number:  0.38E-02 at (3,2,8)
       Max divergence:  0.15E-05 at (3,9,2)
       Min divergence: -0.89E-06 at (11,3,13)
       Max VN number:   0.29E-02 at (5,10,12)
 
       Time Step       90   January 20, 2025  10:03:08
       Step Size:    0.209E+00 s, Total Time:      18.29 s
       Pressure Iterations: 1
       Maximum Velocity Error:  0.11E-04 on Mesh 1 at (16,7,1)
       Maximum Pressure Error:  0.23E+00 on Mesh 1 at (1,1,1)
       ---------------------------------------------------------------
       Mesh    1
       Max CFL number:  0.91E+00 at (1,1,13)
       Max divergence:  0.60E-01 at (1,1,2)
       Min divergence: -0.20E-01 at (1,1,18)
       Max VN number:   0.28E+00 at (1,1,15)
       Total Heat Release Rate:            343.292 kW
       Radiation Loss to Boundaries:       154.118 kW
       Mesh    2
       Max CFL number:  0.34E-02 at (8,15,4)
       Max divergence:  0.13E-05 at (11,10,2)
       Min divergence: -0.93E-06 at (7,6,4)
       Max VN number:   0.31E-02 at (15,3,1)
       Radiation Loss to Boundaries:         0.393 kW
       Mesh    3
       Max CFL number:  0.33E-02 at (6,9,10)
       Max divergence:  0.11E-05 at (11,6,2)
       Min divergence: -0.86E-06 at (9,9,18)
       Max VN number:   0.31E-02 at (2,14,1)
       Radiation Loss to Boundaries:         0.013 kW
       Mesh    4
       Max CFL number:  0.35E-02 at (3,5,2)
       Max divergence:  0.12E-05 at (3,13,2)
       Min divergence: -0.89E-06 at (13,5,19)
       Max VN number:   0.31E-02 at (3,6,1)
       Radiation Loss to Boundaries:         0.387 kW
       Mesh    5
       Max CFL number:  0.34E-02 at (4,13,18)
       Max divergence:  0.13E-05 at (13,2,2)
       Min divergence: -0.83E-06 at (14,12,17)
       Max VN number:   0.34E-02 at (8,7,1)
       Radiation Loss to Boundaries:         0.038 kW
       Mesh    6
       Max CFL number:  0.34E-02 at (15,6,9)
       Max divergence:  0.15E-05 at (8,6,2)
       Min divergence: -0.85E-06 at (3,9,6)
       Max VN number:   0.25E-02 at (3,2,1)
       Radiation Loss to Boundaries:         0.003 kW
       Mesh    7
       Max CFL number:  0.32E-02 at (5,7,6)
       Max divergence:  0.12E-05 at (15,14,2)
       Min divergence: -0.80E-06 at (13,9,7)
       Max VN number:   0.25E-02 at (6,15,1)
       Radiation Loss to Boundaries:         0.010 kW
       Mesh    8
       Max CFL number:  0.36E-02 at (2,14,17)
       Max divergence:  0.14E-05 at (13,13,2)
       Min divergence: -0.88E-06 at (6,6,14)
       Max VN number:   0.24E-02 at (7,15,1)
       Radiation Loss to Boundaries:         0.003 kW
       Mesh    9
       Max CFL number:  0.34E-02 at (3,2,8)
       Max divergence:  0.15E-05 at (3,9,2)
       Min divergence: -0.89E-06 at (11,3,13)
       Max VN number:   0.26E-02 at (5,10,12)
 
       Time Step      100   January 20, 2025  10:03:11
       Step Size:    0.209E+00 s, Total Time:      20.38 s
       Pressure Iterations: 1
       Maximum Velocity Error:  0.46E-04 on Mesh 1 at (7,16,1)
       Maximum Pressure Error:  0.54E+00 on Mesh 1 at (1,1,12)
       ---------------------------------------------------------------
       Mesh    1
       Max CFL number:  0.95E+00 at (1,1,16)
       Max divergence:  0.12E-01 at (1,1,18)
       Min divergence: -0.35E-01 at (1,1,17)
       Max VN number:   0.29E+00 at (1,1,18)
       Total Heat Release Rate:              6.887 kW
       Radiation Loss to Boundaries:        26.558 kW
       Mesh    2
       Max CFL number:  0.34E-02 at (8,15,4)
       Max divergence:  0.13E-05 at (11,10,2)
       Min divergence: -0.93E-06 at (7,6,4)
       Max VN number:   0.31E-02 at (15,3,1)
       Radiation Loss to Boundaries:         0.375 kW
       Mesh    3
       Max CFL number:  0.33E-02 at (6,9,10)
       Max divergence:  0.11E-05 at (11,6,2)
       Min divergence: -0.86E-06 at (9,9,18)
       Max VN number:   0.31E-02 at (2,14,1)
       Radiation Loss to Boundaries:         0.008 kW
       Mesh    4
       Max CFL number:  0.34E-02 at (3,5,2)
       Max divergence:  0.12E-05 at (3,13,2)
       Min divergence: -0.89E-06 at (13,5,19)
       Max VN number:   0.31E-02 at (3,6,1)
       Radiation Loss to Boundaries:         0.381 kW
       Mesh    5
       Max CFL number:  0.34E-02 at (4,13,18)
       Max divergence:  0.13E-05 at (13,2,2)
       Min divergence: -0.82E-06 at (14,12,17)
       Max VN number:   0.35E-02 at (8,7,1)
       Radiation Loss to Boundaries:         0.034 kW
       Mesh    6
       Max CFL number:  0.34E-02 at (15,6,9)
       Max divergence:  0.15E-05 at (8,6,2)
       Min divergence: -0.85E-06 at (3,9,6)
       Max VN number:   0.25E-02 at (3,2,1)
       Radiation Loss to Boundaries:         0.003 kW
       Mesh    7
       Max CFL number:  0.32E-02 at (5,3,6)
       Max divergence:  0.12E-05 at (15,14,2)
       Min divergence: -0.80E-06 at (13,9,7)
       Max VN number:   0.25E-02 at (6,15,1)
       Radiation Loss to Boundaries:         0.008 kW
       Mesh    8
       Max CFL number:  0.36E-02 at (2,14,17)
       Max divergence:  0.13E-05 at (13,13,2)
       Min divergence: -0.88E-06 at (6,6,14)
       Max VN number:   0.23E-02 at (7,15,1)
       Radiation Loss to Boundaries:         0.003 kW
       Mesh    9
       Max CFL number:  0.34E-02 at (3,2,8)
       Max divergence:  0.15E-05 at (3,9,2)
       Min divergence: -0.89E-06 at (11,3,13)
       Max VN number:   0.26E-02 at (5,10,12)
 
       Time Step      200   January 20, 2025  10:03:41
       Step Size:    0.537E+00 s, Total Time:      70.00 s
       Pressure Iterations: 1
       Maximum Velocity Error:  0.38E-05 on Mesh 8 at (16,5,20)
       Maximum Pressure Error:  0.42E-05 on Mesh 1 at (2,1,12)
       ---------------------------------------------------------------
       Mesh    1
       Max CFL number:  0.27E+00 at (3,3,17)
       Max divergence:  0.36E-04 at (3,3,19)
       Min divergence: -0.82E-05 at (6,2,2)
       Max VN number:   0.92E-01 at (3,3,18)
       Radiation Loss to Boundaries:        -0.274 kW
       Mesh    2
       Max CFL number:  0.74E-02 at (1,1,6)
       Max divergence:  0.10E-05 at (11,10,2)
       Min divergence: -0.70E-06 at (6,12,14)
       Max VN number:   0.81E-02 at (15,3,1)
       Mesh    3
       Max CFL number:  0.71E-02 at (14,5,14)
       Max divergence:  0.89E-06 at (11,6,2)
       Min divergence: -0.64E-06 at (9,9,18)
       Max VN number:   0.74E-02 at (2,14,1)
       Mesh    4
       Max CFL number:  0.74E-02 at (3,5,2)
       Max divergence:  0.95E-06 at (9,10,2)
       Min divergence: -0.68E-06 at (14,7,8)
       Max VN number:   0.77E-02 at (6,5,1)
       Mesh    5
       Max CFL number:  0.70E-02 at (5,7,16)
       Max divergence:  0.11E-05 at (13,2,2)
       Min divergence: -0.66E-06 at (1,14,15)
       Max VN number:   0.78E-02 at (8,7,1)
       Mesh    6
       Max CFL number:  0.69E-02 at (15,6,9)
       Max divergence:  0.11E-05 at (8,6,2)
       Min divergence: -0.71E-06 at (3,9,6)
       Max VN number:   0.63E-02 at (3,2,1)
       Mesh    7
       Max CFL number:  0.72E-02 at (5,3,6)
       Max divergence:  0.11E-05 at (15,14,2)
       Min divergence: -0.65E-06 at (8,8,15)
       Max VN number:   0.61E-02 at (5,13,1)
       Mesh    8
       Max CFL number:  0.74E-02 at (2,14,17)
       Max divergence:  0.93E-06 at (13,13,2)
       Min divergence: -0.63E-06 at (6,6,14)
       Max VN number:   0.47E-02 at (8,7,18)
       Mesh    9
       Max CFL number:  0.74E-02 at (3,2,8)
       Max divergence:  0.11E-05 at (3,9,2)
       Min divergence: -0.66E-06 at (8,2,15)
       Max VN number:   0.57E-02 at (5,10,12)
 


 Time Stepping Wall Clock Time (s):       62.580
 Total Elapsed Wall Clock Time (s):       68.936

STOP: FDS completed successfully (CHID: fixed_burner)
