
 Fire Dynamics Simulator

 Current Date     : December 16, 2024  16:11:55
 Revision         : FDS-6.9.1-0-g889da6a-release
 Revision Date    : Sun Apr 7 17:05:06 2024 -0400
 Compiler         : Intel(R) Fortran Intel(R) 64 Compiler Classic for applications running on Intel(R) 64, Version 2021.7.1 Build 20221019_000000
 Compilation Date : Apr 09, 2024 13:24:51

 Number of MPI Processes:  1

 MPI version: 3.1
 MPI library version: Intel(R) MPI Library 2021.6 for Linux* OS


 Job TITLE        : Fixed Burner Simulation
 Job ID string    : fixed_burner


 Grid Dimensions, Mesh     1

   Cells in the X Direction            10
   Cells in the Y Direction            10
   Cells in the Z Direction            20
   Number of Grid Cells              2000


 Physical Dimensions, Mesh     1

   Length (m)                       1.000
   Width  (m)                       1.000
   Height (m)                       2.000

 Grid Dimensions, Mesh     2

   Cells in the X Direction            10
   Cells in the Y Direction            10
   Cells in the Z Direction            20
   Number of Grid Cells              2000


 Physical Dimensions, Mesh     2

   Length (m)                       1.000
   Width  (m)                       1.000
   Height (m)                       2.000

 Grid Dimensions, Mesh     3

   Cells in the X Direction            10
   Cells in the Y Direction            10
   Cells in the Z Direction            20
   Number of Grid Cells              2000


 Physical Dimensions, Mesh     3

   Length (m)                       1.000
   Width  (m)                       1.000
   Height (m)                       2.000

 Grid Dimensions, Mesh     4

   Cells in the X Direction            10
   Cells in the Y Direction            10
   Cells in the Z Direction            20
   Number of Grid Cells              2000


 Physical Dimensions, Mesh     4

   Length (m)                       1.000
   Width  (m)                       1.000
   Height (m)                       2.000

 Grid Dimensions, Mesh     5

   Cells in the X Direction            10
   Cells in the Y Direction            10
   Cells in the Z Direction            20
   Number of Grid Cells              2000


 Physical Dimensions, Mesh     5

   Length (m)                       1.000
   Width  (m)                       1.000
   Height (m)                       2.000

 Grid Dimensions, Mesh     6

   Cells in the X Direction            10
   Cells in the Y Direction            10
   Cells in the Z Direction            20
   Number of Grid Cells              2000


 Physical Dimensions, Mesh     6

   Length (m)                       1.000
   Width  (m)                       1.000
   Height (m)                       2.000

 Grid Dimensions, Mesh     7

   Cells in the X Direction            10
   Cells in the Y Direction            10
   Cells in the Z Direction            20
   Number of Grid Cells              2000


 Physical Dimensions, Mesh     7

   Length (m)                       1.000
   Width  (m)                       1.000
   Height (m)                       2.000

 Grid Dimensions, Mesh     8

   Cells in the X Direction            10
   Cells in the Y Direction            10
   Cells in the Z Direction            20
   Number of Grid Cells              2000


 Physical Dimensions, Mesh     8

   Length (m)                       1.000
   Width  (m)                       1.000
   Height (m)                       2.000

 Grid Dimensions, Mesh     9

   Cells in the X Direction            10
   Cells in the Y Direction            10
   Cells in the Z Direction            20
   Number of Grid Cells              2000


 Physical Dimensions, Mesh     9

   Length (m)                       1.000
   Width  (m)                       1.000
   Height (m)                       2.000

 Grid Dimensions, Mesh    10

   Cells in the X Direction            10
   Cells in the Y Direction            10
   Cells in the Z Direction            20
   Number of Grid Cells              2000


 Physical Dimensions, Mesh    10

   Length (m)                       1.000
   Width  (m)                       1.000
   Height (m)                       2.000

 Grid Dimensions, Mesh    11

   Cells in the X Direction            10
   Cells in the Y Direction            10
   Cells in the Z Direction            20
   Number of Grid Cells              2000


 Physical Dimensions, Mesh    11

   Length (m)                       1.000
   Width  (m)                       1.000
   Height (m)                       2.000

 Grid Dimensions, Mesh    12

   Cells in the X Direction            10
   Cells in the Y Direction            10
   Cells in the Z Direction            20
   Number of Grid Cells              2000


 Physical Dimensions, Mesh    12

   Length (m)                       1.000
   Width  (m)                       1.000
   Height (m)                       2.000

 Grid Dimensions, Mesh    13

   Cells in the X Direction            10
   Cells in the Y Direction            10
   Cells in the Z Direction            20
   Number of Grid Cells              2000


 Physical Dimensions, Mesh    13

   Length (m)                       1.000
   Width  (m)                       1.000
   Height (m)                       2.000

 Grid Dimensions, Mesh    14

   Cells in the X Direction            10
   Cells in the Y Direction            10
   Cells in the Z Direction            20
   Number of Grid Cells              2000


 Physical Dimensions, Mesh    14

   Length (m)                       1.000
   Width  (m)                       1.000
   Height (m)                       2.000

 Grid Dimensions, Mesh    15

   Cells in the X Direction            10
   Cells in the Y Direction            10
   Cells in the Z Direction            20
   Number of Grid Cells              2000


 Physical Dimensions, Mesh    15

   Length (m)                       1.000
   Width  (m)                       1.000
   Height (m)                       2.000

 Grid Dimensions, Mesh    16

   Cells in the X Direction            10
   Cells in the Y Direction            10
   Cells in the Z Direction            20
   Number of Grid Cells              2000


 Physical Dimensions, Mesh    16

   Length (m)                       1.000
   Width  (m)                       1.000
   Height (m)                       2.000

 Miscellaneous Parameters

   Total Number of Grid Cells       32000
   Maximum Cell Aspect Ratio        1.000
   Initial Time Step (s)            0.113
   CFL Velocity Norm                    2
   Simulation Start Time (s)          0.0
   Simulation End Time (s)           45.0
   Background Pressure (Pa)     101325.00
   Ambient Temperature (C)          20.00

   3D Cartesian
   VLES Calculation
   Eddy Viscosity Model:  Deardorff (C_DEARDORFF = 0.10)
   Surface INERT Eddy Viscosity Model:  WALE (C_WALE = 0.60)
   Surface BURNER_1_1 Eddy Viscosity Model:  WALE (C_WALE = 0.60)
   Turbulent Prandtl Number:         0.50
   Turbulent Schmidt Number:         0.50


 Pressure solver information

   Solver:                            FFT
   Velocity tolerance (m/s):    5.000E-02
   Press eqn res tol (1/s^2):   2.000E+03
   Max pressure iterations:            10


 Background Stratification

      Z (m)     P_0 (Pa)    TMP_0 (C)
   ------------------------------------
        1.95    101302.14     20.00
        1.85    101303.31     20.00
        1.75    101304.48     20.00
        1.65    101305.66     20.00
        1.55    101306.83     20.00
        1.45    101308.00     20.00
        1.35    101309.17     20.00
        1.25    101310.34     20.00
        1.15    101311.52     20.00
        1.05    101312.69     20.00
        0.95    101313.86     20.00
        0.85    101315.03     20.00
        0.75    101316.20     20.00
        0.65    101317.38     20.00
        0.55    101318.55     20.00
        0.45    101319.72     20.00
        0.35    101320.89     20.00
        0.25    101322.06     20.00
        0.15    101323.24     20.00
        0.05    101324.41     20.00


 Mass Fraction Transformation Matrix to Convert Species Mixtures (Columns) to Primitive Species (Rows)

                         AIR       CELLULOS  PRODUCTS
   NITROGEN              0.762470  0.000000  0.637772
   OXYGEN                0.230997  0.000000  0.000000
   CARBON DIOXIDE        0.000591  0.000000  0.266238
   WATER VAPOR           0.005941  0.000000  0.095826
   CARBON MONOXIDE       0.000000  0.000000  0.000000
   SOOT                  0.000000  0.000000  0.000164
   HYDROGEN              0.000000  0.000000  0.000000
   HYDROGEN CYANIDE      0.000000  0.000000  0.000000
   CELLULOSE             0.000000  1.000000  0.000000


 Primitive Species Information

   NITROGEN
   Gas Species
   Molecular Weight (g/mol)                28.01340
   Ambient Density (kg/m^3)                1.165
           Enthalpy of Formation (J/kg)  0.000E+00

   OXYGEN
   Gas Species
   Molecular Weight (g/mol)                31.99880
   Ambient Density (kg/m^3)                1.330
           Enthalpy of Formation (J/kg)  0.000E+00

   CARBON DIOXIDE
   Gas Species
   Molecular Weight (g/mol)                44.00950
   Ambient Density (kg/m^3)                1.830
           Enthalpy of Formation (J/kg) -8.941E+06

   WATER VAPOR
   Gas Species
   Molecular Weight (g/mol)                18.01528
   Ambient Density (kg/m^3)                0.749
           Enthalpy of Formation (J/kg) -1.342E+07

   CARBON MONOXIDE
   Gas Species
   Molecular Weight (g/mol)                28.01010
   Ambient Density (kg/m^3)                1.164
           Enthalpy of Formation (J/kg) -3.946E+06

   SOOT
   Gas Species
   Molecular Weight (g/mol)                12.01070
   Ambient Density (kg/m^3)                0.499
           Enthalpy of Formation (J/kg)  0.000E+00

   HYDROGEN
   Gas Species
   Molecular Weight (g/mol)                 2.01588
   Ambient Density (kg/m^3)                0.084
           Enthalpy of Formation (J/kg)  0.000E+00

   HYDROGEN CYANIDE
   Gas Species
   Molecular Weight (g/mol)                27.02534
   Ambient Density (kg/m^3)                1.123
           Enthalpy of Formation (J/kg)  4.924E+06

   CELLULOSE
   Gas Species
   Molecular Weight (g/mol)               162.14060
   Ambient Density (kg/m^3)                6.740
   Assumed Enthalpy of Formation (J/kg) -6.509E+06


 Tracked (Lumped) Species Information

   AIR
   Molecular Weight (g/mol)            28.75198
   Ambient Density (kg/m^3)            1.195
   Initial Mass Fraction               1.000
   Enthalpy of Formation (J/kg)     -8.504E+04

   Sub Species                    Mass Fraction     Mole Fraction
   NITROGEN                       7.624699E-01      7.825727E-01
   OXYGEN                         2.309974E-01      2.075588E-01
   CARBON DIOXIDE                 5.914650E-04      3.864118E-04
   WATER VAPOR                    5.941209E-03      9.482037E-03
 
     Viscosity (kg/m/s) Ambient,  293 K:  1.796E-05
                                  500 K:  2.612E-05
                                 1000 K:  4.125E-05
                                 1500 K:  5.371E-05
                                 2000 K:  6.476E-05
   Therm. Cond. (W/m/K) Ambient,  293 K:  2.556E-02
                                  500 K:  3.814E-02
                                 1000 K:  6.686E-02
                                 1500 K:  9.249E-02
                                 2000 K:  1.153E-01
        Enthalpy (J/kg) Ambient,  293 K: -9.012E+04
                                  500 K:  1.222E+05
                                 1000 K:  6.721E+05
                                 1500 K:  1.270E+06
                                 2000 K:  1.896E+06
    Spec. Heat (J/kg/K) Ambient,  293 K:  1.016E+03
                                  500 K:  1.042E+03
                                 1000 K:  1.156E+03
                                 1500 K:  1.229E+03
                                 2000 K:  1.270E+03
   Diff. Coeff. (m^2/s) Ambient,  293 K:  1.991E-05
                                  500 K:  4.961E-05
                                 1000 K:  1.580E-04
                                 1500 K:  3.095E-04
                                 2000 K:  4.984E-04
 Gibbs Energy Amb. (kJ/mol),  293 K: -5.873E+01
                                  500 K: -1.007E+02
                                 1000 K: -2.117E+02
                                 1500 K: -3.312E+02
                                 2000 K: -4.568E+02

   CELLULOSE
   Molecular Weight (g/mol)           162.14060
   Ambient Density (kg/m^3)            6.740
   Initial Mass Fraction               0.000
   Enthalpy of Formation (J/kg)     -6.509E+06

   Sub Species                    Mass Fraction     Mole Fraction
   CELLULOSE                      1.000000E+00      1.000000E+00
 
     Viscosity (kg/m/s) Ambient,  293 K:  4.186E-05
                                  500 K:  6.043E-05
                                 1000 K:  9.499E-05
                                 1500 K:  1.236E-04
                                 2000 K:  1.489E-04
   Therm. Cond. (W/m/K) Ambient,  293 K:  1.058E-02
                                  500 K:  1.528E-02
                                 1000 K:  2.401E-02
                                 1500 K:  3.124E-02
                                 2000 K:  3.765E-02
        Enthalpy (J/kg) Ambient,  293 K:  5.261E+04
                                  500 K:  8.974E+04
                                 1000 K:  1.795E+05
                                 1500 K:  2.692E+05
                                 2000 K:  3.590E+05
    Spec. Heat (J/kg/K) Ambient,  293 K:  1.795E+02
                                  500 K:  1.795E+02
                                 1000 K:  1.795E+02
                                 1500 K:  1.795E+02
                                 2000 K:  1.795E+02
   Diff. Coeff. (m^2/s) Ambient,  293 K:  1.521E-05
                                  500 K:  3.779E-05
                                 1000 K:  1.201E-04
                                 1500 K:  2.351E-04
                                 2000 K:  3.786E-04

   PRODUCTS
   Molecular Weight (g/mol)            29.28343
   Ambient Density (kg/m^3)            1.217
   Initial Mass Fraction               0.000
   Enthalpy of Formation (J/kg)     -3.667E+06

   Sub Species                    Mass Fraction     Mole Fraction
   NITROGEN                       6.377724E-01      6.666867E-01
   CARBON DIOXIDE                 2.662383E-01      1.771520E-01
   WATER VAPOR                    9.582572E-02      1.557625E-01
   CARBON MONOXIDE                0.000000E+00      0.000000E+00
   SOOT                           1.635442E-04      3.987390E-04
   HYDROGEN CYANIDE               0.000000E+00      0.000000E+00
 
     Viscosity (kg/m/s) Ambient,  293 K:  1.599E-05
                                  500 K:  2.384E-05
                                 1000 K:  3.896E-05
                                 1500 K:  5.145E-05
                                 2000 K:  6.245E-05
   Therm. Cond. (W/m/K) Ambient,  293 K:  2.281E-02
                                  500 K:  3.578E-02
                                 1000 K:  6.692E-02
                                 1500 K:  9.594E-02
                                 2000 K:  1.219E-01
        Enthalpy (J/kg) Ambient,  293 K: -3.672E+06
                                  500 K: -3.445E+06
                                 1000 K: -2.838E+06
                                 1500 K: -2.162E+06
                                 2000 K: -1.447E+06
    Spec. Heat (J/kg/K) Ambient,  293 K:  1.065E+03
                                  500 K:  1.131E+03
                                 1000 K:  1.293E+03
                                 1500 K:  1.398E+03
                                 2000 K:  1.460E+03
   Diff. Coeff. (m^2/s) Ambient,  293 K:  1.920E-05
                                  500 K:  4.880E-05
                                 1000 K:  1.577E-04
                                 1500 K:  3.101E-04
                                 2000 K:  5.002E-04
 Gibbs Energy Amb. (kJ/mol),  293 K: -1.857E+02
                                  500 K: -2.284E+02
                                 1000 K: -3.424E+02
                                 1500 K: -4.665E+02
                                 2000 K: -5.978E+02


 Gas Phase Reaction Information

      Fuel                                           Heat of Combustion (kJ/kg)
      CELLULOSE                                                      15476.9800
      EPUMO2:                                                        13100.0000

      Primitive Species Stoich. Coeff.
      Species ID                                                          Molar
      NITROGEN                                                        -0.000000
      OXYGEN                                                          -5.986500
      CARBON DIOXIDE                                                   5.986500
      WATER VAPOR                                                      5.000000
      SOOT                                                             0.013500
      CELLULOSE                                                       -1.000000

      Tracked (Lumped) Species Stoich. Coeff.
      Species ID                                             Molar         Mass
      AIR                                               -28.842428    -5.114555
      CELLULOSE                                          -1.000000    -1.000000
      PRODUCTS                                           33.855927     6.114555

      Reaction Kinetics

      Fast chemistry

      ODE Solver:  EXPLICIT EULER

      Extinction Model:  EXTINCTION 1
      Auto-Ignition Temperature (C):            -273.1
      Critical Flame Temperature (C):           1427.0

      Prescribed Radiative Fraction:             0.350


 Material Information


 Surface Conditions

   0 INERT (DEFAULT)

   1 BURNER_1_1
     HRR Per Unit Area (kW/m2)          2.5
     CELLULOSE Mass Flux (kg/s/m2)   1.607E-04

   2 OPEN
     Passive Vent to Atmosphere

   3 MIRROR
     Symmetry Plane

   4 INTERPOLATED

   5 PERIODIC

   6 HVAC

   7 MASSLESS TRACER

   8 DROPLET

   9 MASSLESS TARGET

  10 PERIODIC FLOW ONLY


 Lagrangian Particle Classes


 Cut-off Density and Temperature

    Minimum Temperature:  -259.1 C
    Maximum Temperature:  2726.8 C
    Minimum Density:  1.195E-01 kg/m3
    Maximum Density:  2.823E+02 kg/m3


 Slice File Information, Mesh     1

   1 Nodes:   0  10   0  10   1   1, Quantity: HRRPUV
   2 Nodes:   0  10   0  10   1   1, Quantity: TEMPERATURE


 Slice File Information, Mesh     2

   1 Nodes:   0  10   0  10   1   1, Quantity: HRRPUV
   2 Nodes:   0  10   0  10   1   1, Quantity: TEMPERATURE


 Slice File Information, Mesh     3

   1 Nodes:   0  10   0  10   1   1, Quantity: HRRPUV
   2 Nodes:   0  10   0  10   1   1, Quantity: TEMPERATURE


 Slice File Information, Mesh     4

   1 Nodes:   0  10   0  10   1   1, Quantity: HRRPUV
   2 Nodes:   0  10   0  10   1   1, Quantity: TEMPERATURE


 Slice File Information, Mesh     5

   1 Nodes:   0  10   5   5   0  20, Quantity: TEMPERATURE
   2 Nodes:   0  10   5   5   0  20, Quantity: U-VELOCITY
   3 Nodes:   0  10   5   5   0  20, Quantity: V-VELOCITY
   4 Nodes:   0  10   5   5   0  20, Quantity: W-VELOCITY
   5 Nodes:   0  10   5   5   0  20, Quantity: VELOCITY
   6 Nodes:   0  10   5   5   0  20, Quantity: U-VELOCITY
   7 Nodes:   0  10   5   5   0  20, Quantity: V-VELOCITY
   8 Nodes:   0  10   5   5   0  20, Quantity: W-VELOCITY
   9 Nodes:   0  10   0  10   1   1, Quantity: HRRPUV
  10 Nodes:   0  10   5   5   0  20, Quantity: HRRPUV
  11 Nodes:   0  10   0  10   1   1, Quantity: TEMPERATURE


 Slice File Information, Mesh     6

   1 Nodes:   0  10   5   5   0  20, Quantity: TEMPERATURE
   2 Nodes:   0  10   5   5   0  20, Quantity: U-VELOCITY
   3 Nodes:   0  10   5   5   0  20, Quantity: V-VELOCITY
   4 Nodes:   0  10   5   5   0  20, Quantity: W-VELOCITY
   5 Nodes:   0  10   5   5   0  20, Quantity: VELOCITY
   6 Nodes:   0  10   5   5   0  20, Quantity: U-VELOCITY
   7 Nodes:   0  10   5   5   0  20, Quantity: V-VELOCITY
   8 Nodes:   0  10   5   5   0  20, Quantity: W-VELOCITY
   9 Nodes:   0  10   0  10   1   1, Quantity: HRRPUV
  10 Nodes:   0  10   5   5   0  20, Quantity: HRRPUV
  11 Nodes:   0  10   0  10   1   1, Quantity: TEMPERATURE


 Slice File Information, Mesh     7

   1 Nodes:   0  10   5   5   0  20, Quantity: TEMPERATURE
   2 Nodes:   0  10   5   5   0  20, Quantity: U-VELOCITY
   3 Nodes:   0  10   5   5   0  20, Quantity: V-VELOCITY
   4 Nodes:   0  10   5   5   0  20, Quantity: W-VELOCITY
   5 Nodes:   0  10   5   5   0  20, Quantity: VELOCITY
   6 Nodes:   0  10   5   5   0  20, Quantity: U-VELOCITY
   7 Nodes:   0  10   5   5   0  20, Quantity: V-VELOCITY
   8 Nodes:   0  10   5   5   0  20, Quantity: W-VELOCITY
   9 Nodes:   0  10   0  10   1   1, Quantity: HRRPUV
  10 Nodes:   0  10   5   5   0  20, Quantity: HRRPUV
  11 Nodes:   0  10   0  10   1   1, Quantity: TEMPERATURE


 Slice File Information, Mesh     8

   1 Nodes:   0  10   5   5   0  20, Quantity: TEMPERATURE
   2 Nodes:   0  10   5   5   0  20, Quantity: U-VELOCITY
   3 Nodes:   0  10   5   5   0  20, Quantity: V-VELOCITY
   4 Nodes:   0  10   5   5   0  20, Quantity: W-VELOCITY
   5 Nodes:   0  10   5   5   0  20, Quantity: VELOCITY
   6 Nodes:   0  10   5   5   0  20, Quantity: U-VELOCITY
   7 Nodes:   0  10   5   5   0  20, Quantity: V-VELOCITY
   8 Nodes:   0  10   5   5   0  20, Quantity: W-VELOCITY
   9 Nodes:   0  10   0  10   1   1, Quantity: HRRPUV
  10 Nodes:   0  10   5   5   0  20, Quantity: HRRPUV
  11 Nodes:   0  10   0  10   1   1, Quantity: TEMPERATURE


 Slice File Information, Mesh     9

   1 Nodes:   0  10   0  10   1   1, Quantity: HRRPUV
   2 Nodes:   0  10   0  10   1   1, Quantity: TEMPERATURE


 Slice File Information, Mesh    10

   1 Nodes:   0  10   0  10   1   1, Quantity: HRRPUV
   2 Nodes:   0  10   0  10   1   1, Quantity: TEMPERATURE


 Slice File Information, Mesh    11

   1 Nodes:   0  10   0  10   1   1, Quantity: HRRPUV
   2 Nodes:   0  10   0  10   1   1, Quantity: TEMPERATURE


 Slice File Information, Mesh    12

   1 Nodes:   0  10   0  10   1   1, Quantity: HRRPUV
   2 Nodes:   0  10   0  10   1   1, Quantity: TEMPERATURE


 Slice File Information, Mesh    13

   1 Nodes:   0  10   0  10   1   1, Quantity: HRRPUV
   2 Nodes:   0  10   0  10   1   1, Quantity: TEMPERATURE


 Slice File Information, Mesh    14

   1 Nodes:   0  10   0  10   1   1, Quantity: HRRPUV
   2 Nodes:   0  10   0  10   1   1, Quantity: TEMPERATURE


 Slice File Information, Mesh    15

   1 Nodes:   0  10   0  10   1   1, Quantity: HRRPUV
   2 Nodes:   0  10   0  10   1   1, Quantity: TEMPERATURE


 Slice File Information, Mesh    16

   1 Nodes:   0  10   0  10   1   1, Quantity: HRRPUV
   2 Nodes:   0  10   0  10   1   1, Quantity: TEMPERATURE


 Boundary File Information

   1 Quantity: RADIATIVE HEAT FLUX
   2 Quantity: WALL TEMPERATURE
   3 Quantity: TOTAL HEAT FLUX


 Radiation Model Information

   Number of control angles  104
   Time step increment         3
   Angle increment             5
   Theta band N_phi   Solid angle
     1:        4     0.120
     2:       12     0.114
     3:       16     0.127
     4:       20     0.120
     5:       20     0.120
     6:       16     0.127
     7:       12     0.114
     8:        4     0.120
   Using gray gas absorption.
   Mean beam length  1.000E-01 m
 
 

 Run Time Diagnostics

       Time Step        1   December 16, 2024  16:11:55
       Step Size:    0.113E+00 s, Total Time:       0.11 s
       Pressure Iterations: 1
       Maximum Velocity Error:  0.15E-03 on Mesh 13 at (10,6,19)
       Maximum Pressure Error:  0.12E-06 on Mesh 5 at (2,8,4)
       ---------------------------------------------------------------
       Mesh    1
       Max CFL number:  0.26E-01 at (2,2,16)
       Max divergence:  0.10E-05 at (3,2,2)
       Min divergence: -0.12E-05 at (2,2,17)
       Max VN number:   0.15E-01 at (3,8,12)
       Mesh    2
       Max CFL number:  0.26E-01 at (8,5,5)
       Max divergence:  0.15E-05 at (5,8,2)
       Min divergence: -0.15E-05 at (2,8,14)
       Max VN number:   0.18E-01 at (8,9,1)
       Mesh    3
       Max CFL number:  0.26E-01 at (8,7,9)
       Max divergence:  0.13E-05 at (7,2,2)
       Min divergence: -0.13E-05 at (5,8,13)
       Max VN number:   0.16E-01 at (6,7,1)
       Mesh    4
       Max CFL number:  0.27E-01 at (3,9,3)
       Max divergence:  0.14E-05 at (9,9,2)
       Min divergence: -0.14E-05 at (4,9,5)
       Max VN number:   0.17E-01 at (6,4,1)
       Mesh    5
       Max CFL number:  0.27E-01 at (2,8,3)
       Max divergence:  0.13E-05 at (5,7,2)
       Min divergence: -0.13E-05 at (9,9,14)
       Max VN number:   0.15E-01 at (9,5,10)
       Mesh    6
       Max CFL number:  0.28E-01 at (9,4,5)
       Max divergence:  0.12E-05 at (4,6,2)
       Min divergence: -0.13E-05 at (2,8,14)
       Max VN number:   0.20E-01 at (2,9,1)
       Mesh    7
       Max CFL number:  0.27E-01 at (8,6,4)
       Max divergence:  0.17E-05 at (9,8,2)
       Min divergence: -0.15E-05 at (3,7,17)
       Max VN number:   0.18E-01 at (9,5,1)
       Mesh    8
       Max CFL number:  0.27E-01 at (2,4,15)
       Max divergence:  0.13E-05 at (2,8,2)
       Min divergence: -0.13E-05 at (2,3,7)
       Max VN number:   0.19E-01 at (5,7,1)
       Mesh    9
       Max CFL number:  0.28E-01 at (4,9,18)
       Max divergence:  0.13E-05 at (6,1,2)
       Min divergence: -0.13E-05 at (9,2,18)
       Max VN number:   0.16E-01 at (4,2,14)
       Mesh   10
       Max CFL number:  0.25E-01 at (7,7,8)
       Max divergence:  0.15E-05 at (3,7,2)
       Min divergence: -0.14E-05 at (6,2,14)
       Max VN number:   0.15E-01 at (8,6,8)
       Mesh   11
       Max CFL number:  0.27E-01 at (8,4,3)
       Max divergence:  0.11E-05 at (9,1,2)
       Min divergence: -0.14E-05 at (5,2,11)
       Max VN number:   0.16E-01 at (2,8,13)
       Mesh   12
       Max CFL number:  0.28E-01 at (3,4,5)
       Max divergence:  0.14E-05 at (5,3,2)
       Min divergence: -0.14E-05 at (2,6,6)
       Max VN number:   0.22E-01 at (1,6,1)
       Mesh   13
       Max CFL number:  0.25E-01 at (2,6,13)
       Max divergence:  0.19E-05 at (4,4,2)
       Min divergence: -0.13E-05 at (4,1,13)
       Max VN number:   0.15E-01 at (5,3,18)
       Mesh   14
       Max CFL number:  0.28E-01 at (2,4,16)
       Max divergence:  0.15E-05 at (8,4,2)
       Min divergence: -0.15E-05 at (3,2,7)
       Max VN number:   0.16E-01 at (3,3,6)
       Mesh   15
       Max CFL number:  0.26E-01 at (3,6,8)
       Max divergence:  0.14E-05 at (4,6,2)
       Min divergence: -0.14E-05 at (7,9,6)
       Max VN number:   0.15E-01 at (3,8,4)
       Mesh   16
       Max CFL number:  0.26E-01 at (9,3,4)
       Max divergence:  0.14E-05 at (2,10,2)
       Min divergence: -0.13E-05 at (5,2,16)
       Max VN number:   0.18E-01 at (7,8,1)
 
       Time Step        2   December 16, 2024  16:11:55
       Step Size:    0.113E+00 s, Total Time:       0.23 s
       Pressure Iterations: 1
       Maximum Velocity Error:  0.67E-04 on Mesh 15 at (10,4,17)
       Maximum Pressure Error:  0.27E-07 on Mesh 12 at (8,2,20)
       ---------------------------------------------------------------
       Mesh    1
       Max CFL number:  0.26E-01 at (2,2,16)
       Max divergence:  0.10E-05 at (3,2,2)
       Min divergence: -0.12E-05 at (2,2,17)
       Max VN number:   0.15E-01 at (3,8,12)
       Mesh    2
       Max CFL number:  0.26E-01 at (8,5,5)
       Max divergence:  0.15E-05 at (5,8,2)
       Min divergence: -0.15E-05 at (2,8,14)
       Max VN number:   0.18E-01 at (8,9,1)
       Mesh    3
       Max CFL number:  0.26E-01 at (8,7,9)
       Max divergence:  0.13E-05 at (7,2,2)
       Min divergence: -0.13E-05 at (5,8,13)
       Max VN number:   0.16E-01 at (6,7,1)
       Mesh    4
       Max CFL number:  0.27E-01 at (3,9,3)
       Max divergence:  0.14E-05 at (9,9,2)
       Min divergence: -0.14E-05 at (4,9,5)
       Max VN number:   0.17E-01 at (6,4,1)
       Mesh    5
       Max CFL number:  0.27E-01 at (2,8,3)
       Max divergence:  0.13E-05 at (5,7,2)
       Min divergence: -0.13E-05 at (9,9,14)
       Max VN number:   0.15E-01 at (9,5,10)
       Mesh    6
       Max CFL number:  0.27E-01 at (9,4,5)
       Max divergence:  0.12E-05 at (4,6,2)
       Min divergence: -0.13E-05 at (2,8,14)
       Max VN number:   0.20E-01 at (2,9,1)
       Mesh    7
       Max CFL number:  0.27E-01 at (8,6,4)
       Max divergence:  0.17E-05 at (9,8,2)
       Min divergence: -0.15E-05 at (3,7,17)
       Max VN number:   0.18E-01 at (9,5,1)
       Mesh    8
       Max CFL number:  0.27E-01 at (2,4,15)
       Max divergence:  0.13E-05 at (2,8,2)
       Min divergence: -0.13E-05 at (2,3,7)
       Max VN number:   0.19E-01 at (5,7,1)
       Mesh    9
       Max CFL number:  0.28E-01 at (4,9,18)
       Max divergence:  0.13E-05 at (6,1,2)
       Min divergence: -0.13E-05 at (9,2,18)
       Max VN number:   0.16E-01 at (4,2,14)
       Mesh   10
       Max CFL number:  0.25E-01 at (7,7,8)
       Max divergence:  0.15E-05 at (3,7,2)
       Min divergence: -0.15E-05 at (6,2,14)
       Max VN number:   0.14E-01 at (8,6,8)
       Mesh   11
       Max CFL number:  0.27E-01 at (8,4,3)
       Max divergence:  0.11E-05 at (9,1,2)
       Min divergence: -0.14E-05 at (5,2,11)
       Max VN number:   0.16E-01 at (2,8,13)
       Mesh   12
       Max CFL number:  0.28E-01 at (3,4,5)
       Max divergence:  0.14E-05 at (5,3,2)
       Min divergence: -0.14E-05 at (2,6,6)
       Max VN number:   0.22E-01 at (1,6,1)
       Mesh   13
       Max CFL number:  0.25E-01 at (2,6,13)
       Max divergence:  0.19E-05 at (4,4,2)
       Min divergence: -0.13E-05 at (4,1,13)
       Max VN number:   0.15E-01 at (5,3,18)
       Mesh   14
       Max CFL number:  0.27E-01 at (2,4,16)
       Max divergence:  0.15E-05 at (8,4,2)
       Min divergence: -0.15E-05 at (3,2,7)
       Max VN number:   0.16E-01 at (3,3,6)
       Mesh   15
       Max CFL number:  0.26E-01 at (3,6,8)
       Max divergence:  0.14E-05 at (4,6,2)
       Min divergence: -0.14E-05 at (7,9,6)
       Max VN number:   0.15E-01 at (3,8,4)
       Mesh   16
       Max CFL number:  0.26E-01 at (9,3,4)
       Max divergence:  0.14E-05 at (2,10,2)
       Min divergence: -0.13E-05 at (5,2,16)
       Max VN number:   0.18E-01 at (7,8,1)
 
       Time Step        3   December 16, 2024  16:11:56
       Step Size:    0.113E+00 s, Total Time:       0.34 s
       Pressure Iterations: 1
       Maximum Velocity Error:  0.30E-04 on Mesh 15 at (10,5,18)
       Maximum Pressure Error:  0.29E-07 on Mesh 5 at (9,9,20)
       ---------------------------------------------------------------
       Mesh    1
       Max CFL number:  0.26E-01 at (2,2,16)
       Max divergence:  0.10E-05 at (3,2,2)
       Min divergence: -0.12E-05 at (2,2,17)
       Max VN number:   0.15E-01 at (3,8,12)
       Mesh    2
       Max CFL number:  0.26E-01 at (8,5,5)
       Max divergence:  0.15E-05 at (5,8,2)
       Min divergence: -0.14E-05 at (2,8,14)
       Max VN number:   0.18E-01 at (8,9,1)
       Mesh    3
       Max CFL number:  0.26E-01 at (8,7,9)
       Max divergence:  0.13E-05 at (7,2,2)
       Min divergence: -0.12E-05 at (5,8,13)
       Max VN number:   0.16E-01 at (6,7,1)
       Mesh    4
       Max CFL number:  0.27E-01 at (3,9,3)
       Max divergence:  0.14E-05 at (9,9,2)
       Min divergence: -0.13E-05 at (4,9,5)
       Max VN number:   0.17E-01 at (6,4,1)
       Mesh    5
       Max CFL number:  0.27E-01 at (2,8,3)
       Max divergence:  0.13E-05 at (5,7,2)
       Min divergence: -0.12E-05 at (6,5,19)
       Max VN number:   0.15E-01 at (9,5,10)
       Mesh    6
       Max CFL number:  0.27E-01 at (9,4,5)
       Max divergence:  0.12E-05 at (4,6,2)
       Min divergence: -0.11E-05 at (2,8,14)
       Max VN number:   0.20E-01 at (2,9,1)
       Mesh    7
       Max CFL number:  0.26E-01 at (8,6,4)
       Max divergence:  0.17E-05 at (9,8,2)
       Min divergence: -0.13E-05 at (3,7,17)
       Max VN number:   0.18E-01 at (9,5,1)
       Mesh    8
       Max CFL number:  0.27E-01 at (2,4,15)
       Max divergence:  0.14E-05 at (2,8,2)
       Min divergence: -0.13E-05 at (2,3,7)
       Max VN number:   0.19E-01 at (5,7,1)
       Mesh    9
       Max CFL number:  0.28E-01 at (4,9,18)
       Max divergence:  0.13E-05 at (6,1,2)
       Min divergence: -0.13E-05 at (9,2,18)
       Max VN number:   0.16E-01 at (4,2,14)
       Mesh   10
       Max CFL number:  0.25E-01 at (7,7,8)
       Max divergence:  0.15E-05 at (3,7,2)
       Min divergence: -0.12E-05 at (10,2,6)
       Max VN number:   0.14E-01 at (8,6,8)
       Mesh   11
       Max CFL number:  0.27E-01 at (8,4,3)
       Max divergence:  0.12E-05 at (9,1,2)
       Min divergence: -0.13E-05 at (5,2,11)
       Max VN number:   0.16E-01 at (2,8,13)
       Mesh   12
       Max CFL number:  0.28E-01 at (3,4,5)
       Max divergence:  0.15E-05 at (5,3,2)
       Min divergence: -0.14E-05 at (2,6,6)
       Max VN number:   0.22E-01 at (1,6,1)
       Mesh   13
       Max CFL number:  0.25E-01 at (2,6,13)
       Max divergence:  0.19E-05 at (4,4,2)
       Min divergence: -0.12E-05 at (2,4,5)
       Max VN number:   0.14E-01 at (5,3,18)
       Mesh   14
       Max CFL number:  0.27E-01 at (2,4,16)
       Max divergence:  0.15E-05 at (8,4,2)
       Min divergence: -0.15E-05 at (3,2,7)
       Max VN number:   0.16E-01 at (3,3,6)
       Mesh   15
       Max CFL number:  0.26E-01 at (3,6,8)
       Max divergence:  0.14E-05 at (4,6,2)
       Min divergence: -0.13E-05 at (7,9,6)
       Max VN number:   0.15E-01 at (3,8,4)
       Mesh   16
       Max CFL number:  0.26E-01 at (9,2,3)
       Max divergence:  0.14E-05 at (2,10,2)
       Min divergence: -0.13E-05 at (5,2,16)
       Max VN number:   0.18E-01 at (7,8,1)
 
       Time Step        4   December 16, 2024  16:11:56
       Step Size:    0.113E+00 s, Total Time:       0.45 s
       Pressure Iterations: 1
       Maximum Velocity Error:  0.23E-04 on Mesh 15 at (10,4,10)
       Maximum Pressure Error:  0.27E-07 on Mesh 5 at (9,9,20)
       ---------------------------------------------------------------
       Mesh    1
       Max CFL number:  0.26E-01 at (2,2,16)
       Max divergence:  0.10E-05 at (3,2,2)
       Min divergence: -0.12E-05 at (2,2,17)
       Max VN number:   0.15E-01 at (3,8,12)
       Mesh    2
       Max CFL number:  0.26E-01 at (8,5,5)
       Max divergence:  0.15E-05 at (5,8,2)
       Min divergence: -0.14E-05 at (2,8,14)
       Max VN number:   0.18E-01 at (8,9,1)
       Mesh    3
       Max CFL number:  0.26E-01 at (8,7,9)
       Max divergence:  0.13E-05 at (7,2,2)
       Min divergence: -0.12E-05 at (5,8,13)
       Max VN number:   0.16E-01 at (6,7,1)
       Mesh    4
       Max CFL number:  0.27E-01 at (3,9,3)
       Max divergence:  0.14E-05 at (9,9,2)
       Min divergence: -0.13E-05 at (4,9,5)
       Max VN number:   0.17E-01 at (6,4,1)
       Mesh    5
       Max CFL number:  0.26E-01 at (2,8,3)
       Max divergence:  0.13E-05 at (5,7,2)
       Min divergence: -0.13E-05 at (6,5,19)
       Max VN number:   0.15E-01 at (9,5,10)
       Mesh    6
       Max CFL number:  0.27E-01 at (9,4,5)
       Max divergence:  0.12E-05 at (4,6,2)
       Min divergence: -0.11E-05 at (2,8,14)
       Max VN number:   0.20E-01 at (2,9,1)
       Mesh    7
       Max CFL number:  0.26E-01 at (8,6,4)
       Max divergence:  0.17E-05 at (9,8,2)
       Min divergence: -0.13E-05 at (3,7,17)
       Max VN number:   0.18E-01 at (9,5,1)
       Mesh    8
       Max CFL number:  0.26E-01 at (2,4,15)
       Max divergence:  0.14E-05 at (2,8,2)
       Min divergence: -0.13E-05 at (2,3,7)
       Max VN number:   0.20E-01 at (5,7,1)
       Mesh    9
       Max CFL number:  0.28E-01 at (4,9,18)
       Max divergence:  0.13E-05 at (6,1,2)
       Min divergence: -0.13E-05 at (9,2,18)
       Max VN number:   0.16E-01 at (4,2,14)
       Mesh   10
       Max CFL number:  0.25E-01 at (7,7,8)
       Max divergence:  0.15E-05 at (3,7,2)
       Min divergence: -0.12E-05 at (10,2,6)
       Max VN number:   0.14E-01 at (8,6,8)
       Mesh   11
       Max CFL number:  0.27E-01 at (8,4,3)
       Max divergence:  0.12E-05 at (9,1,2)
       Min divergence: -0.13E-05 at (5,2,11)
       Max VN number:   0.16E-01 at (2,8,13)
       Mesh   12
       Max CFL number:  0.28E-01 at (3,4,5)
       Max divergence:  0.14E-05 at (5,3,2)
       Min divergence: -0.14E-05 at (2,6,6)
       Max VN number:   0.22E-01 at (1,6,1)
       Mesh   13
       Max CFL number:  0.25E-01 at (2,6,13)
       Max divergence:  0.19E-05 at (4,4,2)
       Min divergence: -0.12E-05 at (2,4,5)
       Max VN number:   0.14E-01 at (5,3,18)
       Mesh   14
       Max CFL number:  0.27E-01 at (2,4,16)
       Max divergence:  0.15E-05 at (8,4,2)
       Min divergence: -0.14E-05 at (3,2,7)
       Max VN number:   0.16E-01 at (3,3,6)
       Mesh   15
       Max CFL number:  0.25E-01 at (3,6,8)
       Max divergence:  0.14E-05 at (4,6,2)
       Min divergence: -0.13E-05 at (7,9,6)
       Max VN number:   0.15E-01 at (3,8,4)
       Mesh   16
       Max CFL number:  0.25E-01 at (9,2,3)
       Max divergence:  0.14E-05 at (2,10,2)
       Min divergence: -0.13E-05 at (5,2,16)
       Max VN number:   0.18E-01 at (7,8,1)
 
       Time Step        5   December 16, 2024  16:11:56
       Step Size:    0.113E+00 s, Total Time:       0.56 s
       Pressure Iterations: 1
       Maximum Velocity Error:  0.19E-04 on Mesh 9 at (6,10,13)
       Maximum Pressure Error:  0.27E-07 on Mesh 12 at (8,2,20)
       ---------------------------------------------------------------
       Mesh    1
       Max CFL number:  0.26E-01 at (2,2,16)
       Max divergence:  0.10E-05 at (3,2,2)
       Min divergence: -0.12E-05 at (2,2,17)
       Max VN number:   0.15E-01 at (3,8,12)
       Mesh    2
       Max CFL number:  0.25E-01 at (8,5,5)
       Max divergence:  0.15E-05 at (5,8,2)
       Min divergence: -0.14E-05 at (2,8,14)
       Max VN number:   0.18E-01 at (8,9,1)
       Mesh    3
       Max CFL number:  0.26E-01 at (8,7,9)
       Max divergence:  0.13E-05 at (7,2,2)
       Min divergence: -0.12E-05 at (5,8,13)
       Max VN number:   0.16E-01 at (6,7,1)
       Mesh    4
       Max CFL number:  0.27E-01 at (3,9,3)
       Max divergence:  0.14E-05 at (9,9,2)
       Min divergence: -0.13E-05 at (4,9,5)
       Max VN number:   0.17E-01 at (6,4,1)
       Mesh    5
       Max CFL number:  0.26E-01 at (2,8,3)
       Max divergence:  0.13E-05 at (5,7,2)
       Min divergence: -0.13E-05 at (6,5,19)
       Max VN number:   0.15E-01 at (7,2,1)
       Mesh    6
       Max CFL number:  0.27E-01 at (9,4,5)
       Max divergence:  0.12E-05 at (4,6,2)
       Min divergence: -0.11E-05 at (6,5,14)
       Max VN number:   0.19E-01 at (2,9,1)
       Mesh    7
       Max CFL number:  0.26E-01 at (8,6,4)
       Max divergence:  0.17E-05 at (9,8,2)
       Min divergence: -0.13E-05 at (3,7,17)
       Max VN number:   0.18E-01 at (9,5,1)
       Mesh    8
       Max CFL number:  0.26E-01 at (2,4,15)
       Max divergence:  0.14E-05 at (2,8,2)
       Min divergence: -0.13E-05 at (2,3,7)
       Max VN number:   0.20E-01 at (5,7,1)
       Mesh    9
       Max CFL number:  0.28E-01 at (4,9,18)
       Max divergence:  0.13E-05 at (6,1,2)
       Min divergence: -0.13E-05 at (9,2,18)
       Max VN number:   0.16E-01 at (4,2,14)
       Mesh   10
       Max CFL number:  0.24E-01 at (7,7,8)
       Max divergence:  0.15E-05 at (3,7,2)
       Min divergence: -0.12E-05 at (10,2,6)
       Max VN number:   0.14E-01 at (8,6,8)
       Mesh   11
       Max CFL number:  0.27E-01 at (8,4,3)
       Max divergence:  0.12E-05 at (9,1,2)
       Min divergence: -0.13E-05 at (5,2,11)
       Max VN number:   0.16E-01 at (2,8,13)
       Mesh   12
       Max CFL number:  0.28E-01 at (3,4,5)
       Max divergence:  0.14E-05 at (5,3,2)
       Min divergence: -0.14E-05 at (2,6,6)
       Max VN number:   0.22E-01 at (1,6,1)
       Mesh   13
       Max CFL number:  0.24E-01 at (7,7,4)
       Max divergence:  0.19E-05 at (4,4,2)
       Min divergence: -0.12E-05 at (2,4,5)
       Max VN number:   0.14E-01 at (5,3,18)
       Mesh   14
       Max CFL number:  0.27E-01 at (2,4,16)
       Max divergence:  0.15E-05 at (8,4,2)
       Min divergence: -0.15E-05 at (3,2,7)
       Max VN number:   0.16E-01 at (3,3,6)
       Mesh   15
       Max CFL number:  0.25E-01 at (3,6,8)
       Max divergence:  0.14E-05 at (4,6,2)
       Min divergence: -0.13E-05 at (7,9,6)
       Max VN number:   0.15E-01 at (3,8,4)
       Mesh   16
       Max CFL number:  0.25E-01 at (9,2,3)
       Max divergence:  0.14E-05 at (2,10,2)
       Min divergence: -0.13E-05 at (5,2,16)
       Max VN number:   0.18E-01 at (7,8,1)
 
       Time Step        6   December 16, 2024  16:11:57
       Step Size:    0.113E+00 s, Total Time:       0.68 s
       Pressure Iterations: 1
       Maximum Velocity Error:  0.15E-04 on Mesh 6 at (1,10,15)
       Maximum Pressure Error:  0.26E-07 on Mesh 12 at (8,2,20)
       ---------------------------------------------------------------
       Mesh    1
       Max CFL number:  0.25E-01 at (2,2,16)
       Max divergence:  0.10E-05 at (3,8,17)
       Min divergence: -0.12E-05 at (2,2,17)
       Max VN number:   0.15E-01 at (3,8,12)
       Mesh    2
       Max CFL number:  0.25E-01 at (8,5,5)
       Max divergence:  0.16E-05 at (5,8,2)
       Min divergence: -0.13E-05 at (2,8,14)
       Max VN number:   0.18E-01 at (8,9,1)
       Mesh    3
       Max CFL number:  0.25E-01 at (8,7,9)
       Max divergence:  0.13E-05 at (7,2,2)
       Min divergence: -0.12E-05 at (5,8,13)
       Max VN number:   0.16E-01 at (6,7,1)
       Mesh    4
       Max CFL number:  0.27E-01 at (3,9,3)
       Max divergence:  0.15E-05 at (9,9,2)
       Min divergence: -0.12E-05 at (4,9,5)
       Max VN number:   0.17E-01 at (6,4,1)
       Mesh    5
       Max CFL number:  0.26E-01 at (2,8,3)
       Max divergence:  0.13E-05 at (5,7,2)
       Min divergence: -0.12E-05 at (6,5,19)
       Max VN number:   0.16E-01 at (7,2,1)
       Mesh    6
       Max CFL number:  0.27E-01 at (8,9,4)
       Max divergence:  0.12E-05 at (4,6,2)
       Min divergence: -0.10E-05 at (2,8,14)
       Max VN number:   0.19E-01 at (2,9,1)
       Mesh    7
       Max CFL number:  0.26E-01 at (8,6,4)
       Max divergence:  0.17E-05 at (9,8,2)
       Min divergence: -0.12E-05 at (3,7,17)
       Max VN number:   0.18E-01 at (9,5,1)
       Mesh    8
       Max CFL number:  0.26E-01 at (2,4,15)
       Max divergence:  0.15E-05 at (2,8,2)
       Min divergence: -0.12E-05 at (2,3,7)
       Max VN number:   0.20E-01 at (5,7,1)
       Mesh    9
       Max CFL number:  0.28E-01 at (4,9,18)
       Max divergence:  0.13E-05 at (6,1,2)
       Min divergence: -0.13E-05 at (9,2,18)
       Max VN number:   0.16E-01 at (4,2,14)
       Mesh   10
       Max CFL number:  0.24E-01 at (7,7,8)
       Max divergence:  0.15E-05 at (3,7,2)
       Min divergence: -0.11E-05 at (10,2,6)
       Max VN number:   0.14E-01 at (8,6,8)
       Mesh   11
       Max CFL number:  0.27E-01 at (8,4,3)
       Max divergence:  0.13E-05 at (9,1,2)
       Min divergence: -0.12E-05 at (5,2,11)
       Max VN number:   0.16E-01 at (2,8,13)
       Mesh   12
       Max CFL number:  0.28E-01 at (3,4,5)
       Max divergence:  0.15E-05 at (5,3,2)
       Min divergence: -0.13E-05 at (2,6,6)
       Max VN number:   0.22E-01 at (1,6,1)
       Mesh   13
       Max CFL number:  0.24E-01 at (7,7,4)
       Max divergence:  0.20E-05 at (4,4,2)
       Min divergence: -0.12E-05 at (4,1,13)
       Max VN number:   0.14E-01 at (5,3,18)
       Mesh   14
       Max CFL number:  0.27E-01 at (2,4,16)
       Max divergence:  0.15E-05 at (8,4,2)
       Min divergence: -0.14E-05 at (3,2,7)
       Max VN number:   0.16E-01 at (3,3,6)
       Mesh   15
       Max CFL number:  0.25E-01 at (3,6,8)
       Max divergence:  0.15E-05 at (4,6,2)
       Min divergence: -0.13E-05 at (7,9,6)
       Max VN number:   0.14E-01 at (3,8,4)
       Mesh   16
       Max CFL number:  0.25E-01 at (9,2,3)
       Max divergence:  0.14E-05 at (2,10,2)
       Min divergence: -0.13E-05 at (5,2,16)
       Max VN number:   0.18E-01 at (7,8,1)
 
       Time Step        7   December 16, 2024  16:11:57
       Step Size:    0.113E+00 s, Total Time:       0.79 s
       Pressure Iterations: 1
       Maximum Velocity Error:  0.15E-04 on Mesh 15 at (10,10,14)
       Maximum Pressure Error:  0.27E-07 on Mesh 5 at (9,9,20)
       ---------------------------------------------------------------
       Mesh    1
       Max CFL number:  0.25E-01 at (2,2,16)
       Max divergence:  0.10E-05 at (3,8,17)
       Min divergence: -0.12E-05 at (2,2,17)
       Max VN number:   0.15E-01 at (3,8,12)
       Mesh    2
       Max CFL number:  0.25E-01 at (8,5,5)
       Max divergence:  0.16E-05 at (5,8,2)
       Min divergence: -0.13E-05 at (2,8,14)
       Max VN number:   0.18E-01 at (8,9,1)
       Mesh    3
       Max CFL number:  0.25E-01 at (8,7,9)
       Max divergence:  0.13E-05 at (7,2,2)
       Min divergence: -0.12E-05 at (5,8,13)
       Max VN number:   0.16E-01 at (6,7,1)
       Mesh    4
       Max CFL number:  0.26E-01 at (3,9,3)
       Max divergence:  0.14E-05 at (9,9,2)
       Min divergence: -0.12E-05 at (4,9,5)
       Max VN number:   0.17E-01 at (6,4,1)
       Mesh    5
       Max CFL number:  0.26E-01 at (2,8,3)
       Max divergence:  0.13E-05 at (5,7,2)
       Min divergence: -0.12E-05 at (6,5,19)
       Max VN number:   0.16E-01 at (7,2,1)
       Mesh    6
       Max CFL number:  0.26E-01 at (8,9,4)
       Max divergence:  0.12E-05 at (4,6,2)
       Min divergence: -0.10E-05 at (2,8,14)
       Max VN number:   0.19E-01 at (2,9,1)
       Mesh    7
       Max CFL number:  0.26E-01 at (8,6,4)
       Max divergence:  0.17E-05 at (9,8,2)
       Min divergence: -0.12E-05 at (3,7,17)
       Max VN number:   0.18E-01 at (9,5,1)
       Mesh    8
       Max CFL number:  0.26E-01 at (2,4,15)
       Max divergence:  0.15E-05 at (2,8,2)
       Min divergence: -0.12E-05 at (2,3,7)
       Max VN number:   0.21E-01 at (5,7,1)
       Mesh    9
       Max CFL number:  0.28E-01 at (4,9,18)
       Max divergence:  0.13E-05 at (6,1,2)
       Min divergence: -0.13E-05 at (9,2,18)
       Max VN number:   0.16E-01 at (4,2,14)
       Mesh   10
       Max CFL number:  0.24E-01 at (7,7,8)
       Max divergence:  0.15E-05 at (3,7,2)
       Min divergence: -0.11E-05 at (10,2,6)
       Max VN number:   0.14E-01 at (8,6,8)
       Mesh   11
       Max CFL number:  0.27E-01 at (8,4,3)
       Max divergence:  0.13E-05 at (9,1,2)
       Min divergence: -0.12E-05 at (5,2,11)
       Max VN number:   0.16E-01 at (2,8,13)
       Mesh   12
       Max CFL number:  0.27E-01 at (3,4,5)
       Max divergence:  0.14E-05 at (5,3,2)
       Min divergence: -0.13E-05 at (2,6,6)
       Max VN number:   0.22E-01 at (1,6,1)
       Mesh   13
       Max CFL number:  0.24E-01 at (2,8,16)
       Max divergence:  0.20E-05 at (4,4,2)
       Min divergence: -0.12E-05 at (4,1,13)
       Max VN number:   0.14E-01 at (5,3,18)
       Mesh   14
       Max CFL number:  0.26E-01 at (2,4,16)
       Max divergence:  0.15E-05 at (8,4,2)
       Min divergence: -0.14E-05 at (3,2,7)
       Max VN number:   0.16E-01 at (3,3,6)
       Mesh   15
       Max CFL number:  0.25E-01 at (3,6,8)
       Max divergence:  0.15E-05 at (4,6,2)
       Min divergence: -0.13E-05 at (7,9,6)
       Max VN number:   0.14E-01 at (3,8,4)
       Mesh   16
       Max CFL number:  0.25E-01 at (9,2,3)
       Max divergence:  0.14E-05 at (2,10,2)
       Min divergence: -0.13E-05 at (5,2,16)
       Max VN number:   0.18E-01 at (7,8,1)
 
       Time Step        8   December 16, 2024  16:11:57
       Step Size:    0.113E+00 s, Total Time:       0.90 s
       Pressure Iterations: 1
       Maximum Velocity Error:  0.13E-04 on Mesh 10 at (1,10,14)
       Maximum Pressure Error:  0.29E-07 on Mesh 5 at (9,9,20)
       ---------------------------------------------------------------
       Mesh    1
       Max CFL number:  0.25E-01 at (2,2,16)
       Max divergence:  0.10E-05 at (3,8,17)
       Min divergence: -0.12E-05 at (2,2,17)
       Max VN number:   0.15E-01 at (3,8,12)
       Mesh    2
       Max CFL number:  0.25E-01 at (8,5,5)
       Max divergence:  0.15E-05 at (5,8,2)
       Min divergence: -0.13E-05 at (2,8,14)
       Max VN number:   0.18E-01 at (8,9,1)
       Mesh    3
       Max CFL number:  0.25E-01 at (8,7,9)
       Max divergence:  0.13E-05 at (7,2,2)
       Min divergence: -0.12E-05 at (5,8,13)
       Max VN number:   0.16E-01 at (6,7,1)
       Mesh    4
       Max CFL number:  0.26E-01 at (3,9,3)
       Max divergence:  0.14E-05 at (9,9,2)
       Min divergence: -0.12E-05 at (7,2,18)
       Max VN number:   0.17E-01 at (10,2,1)
       Mesh    5
       Max CFL number:  0.26E-01 at (2,8,3)
       Max divergence:  0.13E-05 at (5,7,2)
       Min divergence: -0.12E-05 at (6,5,19)
       Max VN number:   0.16E-01 at (7,2,1)
       Mesh    6
       Max CFL number:  0.26E-01 at (8,9,4)
       Max divergence:  0.12E-05 at (4,6,2)
       Min divergence: -0.10E-05 at (2,8,14)
       Max VN number:   0.19E-01 at (2,9,1)
       Mesh    7
       Max CFL number:  0.26E-01 at (8,6,4)
       Max divergence:  0.17E-05 at (9,8,2)
       Min divergence: -0.12E-05 at (3,7,17)
       Max VN number:   0.18E-01 at (9,5,1)
       Mesh    8
       Max CFL number:  0.26E-01 at (2,4,15)
       Max divergence:  0.15E-05 at (2,8,2)
       Min divergence: -0.12E-05 at (2,3,7)
       Max VN number:   0.21E-01 at (5,7,1)
       Mesh    9
       Max CFL number:  0.28E-01 at (4,9,18)
       Max divergence:  0.13E-05 at (6,1,2)
       Min divergence: -0.13E-05 at (9,2,18)
       Max VN number:   0.16E-01 at (4,2,14)
       Mesh   10
       Max CFL number:  0.24E-01 at (7,7,8)
       Max divergence:  0.15E-05 at (3,7,2)
       Min divergence: -0.11E-05 at (10,2,6)
       Max VN number:   0.14E-01 at (8,6,8)
       Mesh   11
       Max CFL number:  0.27E-01 at (8,4,3)
       Max divergence:  0.13E-05 at (9,1,2)
       Min divergence: -0.12E-05 at (5,2,11)
       Max VN number:   0.16E-01 at (2,8,13)
       Mesh   12
       Max CFL number:  0.27E-01 at (3,4,5)
       Max divergence:  0.14E-05 at (5,3,2)
       Min divergence: -0.13E-05 at (2,6,6)
       Max VN number:   0.22E-01 at (1,6,1)
       Mesh   13
       Max CFL number:  0.24E-01 at (2,8,16)
       Max divergence:  0.20E-05 at (4,4,2)
       Min divergence: -0.12E-05 at (4,1,13)
       Max VN number:   0.14E-01 at (5,3,18)
       Mesh   14
       Max CFL number:  0.26E-01 at (2,4,16)
       Max divergence:  0.15E-05 at (8,4,2)
       Min divergence: -0.14E-05 at (3,2,7)
       Max VN number:   0.16E-01 at (3,3,6)
       Mesh   15
       Max CFL number:  0.25E-01 at (3,6,8)
       Max divergence:  0.15E-05 at (4,6,2)
       Min divergence: -0.13E-05 at (7,9,6)
       Max VN number:   0.14E-01 at (3,8,4)
       Mesh   16
       Max CFL number:  0.25E-01 at (9,2,3)
       Max divergence:  0.14E-05 at (2,10,2)
       Min divergence: -0.13E-05 at (5,2,16)
       Max VN number:   0.18E-01 at (7,8,1)
 
       Time Step        9   December 16, 2024  16:11:58
       Step Size:    0.113E+00 s, Total Time:       1.02 s
       Pressure Iterations: 1
       Maximum Velocity Error:  0.12E-04 on Mesh 10 at (0,10,1)
       Maximum Pressure Error:  0.30E-07 on Mesh 14 at (3,6,20)
       ---------------------------------------------------------------
       Mesh    1
       Max CFL number:  0.25E-01 at (2,2,16)
       Max divergence:  0.11E-05 at (3,8,17)
       Min divergence: -0.12E-05 at (2,2,17)
       Max VN number:   0.15E-01 at (3,8,12)
       Mesh    2
       Max CFL number:  0.25E-01 at (8,5,5)
       Max divergence:  0.16E-05 at (5,8,2)
       Min divergence: -0.13E-05 at (2,8,14)
       Max VN number:   0.18E-01 at (8,9,1)
       Mesh    3
       Max CFL number:  0.25E-01 at (8,7,9)
       Max divergence:  0.13E-05 at (7,2,2)
       Min divergence: -0.11E-05 at (5,8,13)
       Max VN number:   0.15E-01 at (6,7,1)
       Mesh    4
       Max CFL number:  0.26E-01 at (3,9,3)
       Max divergence:  0.14E-05 at (9,9,2)
       Min divergence: -0.12E-05 at (7,2,18)
       Max VN number:   0.17E-01 at (10,2,1)
       Mesh    5
       Max CFL number:  0.26E-01 at (2,8,3)
       Max divergence:  0.13E-05 at (5,7,2)
       Min divergence: -0.12E-05 at (6,5,19)
       Max VN number:   0.16E-01 at (7,2,1)
       Mesh    6
       Max CFL number:  0.26E-01 at (8,9,4)
       Max divergence:  0.12E-05 at (4,6,2)
       Min divergence: -0.98E-06 at (2,8,14)
       Max VN number:   0.19E-01 at (2,9,1)
       Mesh    7
       Max CFL number:  0.26E-01 at (8,6,4)
       Max divergence:  0.18E-05 at (9,8,2)
       Min divergence: -0.11E-05 at (3,7,17)
       Max VN number:   0.18E-01 at (9,5,1)
       Mesh    8
       Max CFL number:  0.26E-01 at (2,4,15)
       Max divergence:  0.15E-05 at (2,8,2)
       Min divergence: -0.12E-05 at (2,3,7)
       Max VN number:   0.21E-01 at (5,7,1)
       Mesh    9
       Max CFL number:  0.27E-01 at (4,9,18)
       Max divergence:  0.13E-05 at (6,1,2)
       Min divergence: -0.12E-05 at (9,2,18)
       Max VN number:   0.16E-01 at (4,2,14)
       Mesh   10
       Max CFL number:  0.24E-01 at (8,3,14)
       Max divergence:  0.15E-05 at (3,7,2)
       Min divergence: -0.11E-05 at (10,2,6)
       Max VN number:   0.14E-01 at (8,6,8)
       Mesh   11
       Max CFL number:  0.27E-01 at (8,4,3)
       Max divergence:  0.13E-05 at (9,1,2)
       Min divergence: -0.11E-05 at (7,8,18)
       Max VN number:   0.16E-01 at (2,8,13)
       Mesh   12
       Max CFL number:  0.27E-01 at (3,4,5)
       Max divergence:  0.14E-05 at (5,3,2)
       Min divergence: -0.12E-05 at (2,6,6)
       Max VN number:   0.22E-01 at (1,6,1)
       Mesh   13
       Max CFL number:  0.24E-01 at (2,8,16)
       Max divergence:  0.20E-05 at (4,4,2)
       Min divergence: -0.12E-05 at (2,4,5)
       Max VN number:   0.14E-01 at (5,5,2)
       Mesh   14
       Max CFL number:  0.26E-01 at (2,4,16)
       Max divergence:  0.15E-05 at (8,4,2)
       Min divergence: -0.13E-05 at (3,2,7)
       Max VN number:   0.16E-01 at (3,3,6)
       Mesh   15
       Max CFL number:  0.25E-01 at (3,6,8)
       Max divergence:  0.15E-05 at (4,6,2)
       Min divergence: -0.12E-05 at (7,9,6)
       Max VN number:   0.14E-01 at (3,8,4)
       Mesh   16
       Max CFL number:  0.25E-01 at (9,2,3)
       Max divergence:  0.14E-05 at (2,10,2)
       Min divergence: -0.12E-05 at (5,2,16)
       Max VN number:   0.18E-01 at (7,8,1)
 
       Time Step       10   December 16, 2024  16:11:58
       Step Size:    0.113E+00 s, Total Time:       1.13 s
       Pressure Iterations: 1
       Maximum Velocity Error:  0.11E-04 on Mesh 14 at (0,10,3)
       Maximum Pressure Error:  0.25E-07 on Mesh 12 at (8,2,20)
       ---------------------------------------------------------------
       Mesh    1
       Max CFL number:  0.25E-01 at (2,2,16)
       Max divergence:  0.11E-05 at (3,8,17)
       Min divergence: -0.12E-05 at (2,2,17)
       Max VN number:   0.15E-01 at (3,8,12)
       Mesh    2
       Max CFL number:  0.25E-01 at (8,5,5)
       Max divergence:  0.16E-05 at (5,8,2)
       Min divergence: -0.13E-05 at (2,8,14)
       Max VN number:   0.18E-01 at (8,9,1)
       Mesh    3
       Max CFL number:  0.25E-01 at (8,7,9)
       Max divergence:  0.13E-05 at (7,2,2)
       Min divergence: -0.11E-05 at (5,8,13)
       Max VN number:   0.15E-01 at (6,7,1)
       Mesh    4
       Max CFL number:  0.26E-01 at (3,9,3)
       Max divergence:  0.14E-05 at (9,9,2)
       Min divergence: -0.12E-05 at (7,2,18)
       Max VN number:   0.17E-01 at (10,2,1)
       Mesh    5
       Max CFL number:  0.26E-01 at (2,8,3)
       Max divergence:  0.13E-05 at (5,7,2)
       Min divergence: -0.12E-05 at (6,5,19)
       Max VN number:   0.16E-01 at (7,2,1)
       Mesh    6
       Max CFL number:  0.26E-01 at (8,9,4)
       Max divergence:  0.12E-05 at (4,6,2)
       Min divergence: -0.98E-06 at (2,8,14)
       Max VN number:   0.19E-01 at (2,9,1)
       Mesh    7
       Max CFL number:  0.26E-01 at (8,6,4)
       Max divergence:  0.18E-05 at (9,8,2)
       Min divergence: -0.11E-05 at (3,7,17)
       Max VN number:   0.18E-01 at (9,5,1)
       Mesh    8
       Max CFL number:  0.25E-01 at (2,4,15)
       Max divergence:  0.15E-05 at (2,8,2)
       Min divergence: -0.12E-05 at (2,3,7)
       Max VN number:   0.21E-01 at (5,7,1)
       Mesh    9
       Max CFL number:  0.27E-01 at (4,9,18)
       Max divergence:  0.13E-05 at (6,1,2)
       Min divergence: -0.12E-05 at (9,2,18)
       Max VN number:   0.16E-01 at (4,2,14)
       Mesh   10
       Max CFL number:  0.24E-01 at (8,3,14)
       Max divergence:  0.15E-05 at (3,7,2)
       Min divergence: -0.11E-05 at (10,2,6)
       Max VN number:   0.14E-01 at (8,6,8)
       Mesh   11
       Max CFL number:  0.26E-01 at (8,4,3)
       Max divergence:  0.13E-05 at (9,1,2)
       Min divergence: -0.11E-05 at (7,8,18)
       Max VN number:   0.16E-01 at (2,8,13)
       Mesh   12
       Max CFL number:  0.27E-01 at (3,4,5)
       Max divergence:  0.14E-05 at (5,3,2)
       Min divergence: -0.12E-05 at (2,6,6)
       Max VN number:   0.22E-01 at (1,6,1)
       Mesh   13
       Max CFL number:  0.24E-01 at (2,8,16)
       Max divergence:  0.20E-05 at (4,4,2)
       Min divergence: -0.12E-05 at (2,4,5)
       Max VN number:   0.14E-01 at (5,5,2)
       Mesh   14
       Max CFL number:  0.26E-01 at (2,4,16)
       Max divergence:  0.15E-05 at (8,4,2)
       Min divergence: -0.13E-05 at (3,2,7)
       Max VN number:   0.16E-01 at (3,3,6)
       Mesh   15
       Max CFL number:  0.25E-01 at (3,6,8)
       Max divergence:  0.15E-05 at (4,6,2)
       Min divergence: -0.12E-05 at (7,9,6)
       Max VN number:   0.14E-01 at (3,8,4)
       Mesh   16
       Max CFL number:  0.24E-01 at (9,2,3)
       Max divergence:  0.14E-05 at (2,10,2)
       Min divergence: -0.12E-05 at (5,2,16)
       Max VN number:   0.18E-01 at (7,8,1)
 
       Time Step       20   December 16, 2024  16:12:01
       Step Size:    0.113E+00 s, Total Time:       2.26 s
       Pressure Iterations: 1
       Maximum Velocity Error:  0.11E-04 on Mesh 1 at (10,1,12)
       Maximum Pressure Error:  0.26E-07 on Mesh 12 at (8,2,20)
       ---------------------------------------------------------------
       Mesh    1
       Max CFL number:  0.24E-01 at (2,2,16)
       Max divergence:  0.11E-05 at (3,8,17)
       Min divergence: -0.11E-05 at (2,2,17)
       Max VN number:   0.14E-01 at (3,8,12)
       Mesh    2
       Max CFL number:  0.23E-01 at (4,9,4)
       Max divergence:  0.15E-05 at (5,8,2)
       Min divergence: -0.12E-05 at (5,4,16)
       Max VN number:   0.17E-01 at (8,9,1)
       Mesh    3
       Max CFL number:  0.23E-01 at (8,7,9)
       Max divergence:  0.13E-05 at (7,2,2)
       Min divergence: -0.10E-05 at (5,8,13)
       Max VN number:   0.15E-01 at (3,1,1)
       Mesh    4
       Max CFL number:  0.25E-01 at (3,9,3)
       Max divergence:  0.14E-05 at (3,8,2)
       Min divergence: -0.11E-05 at (7,2,18)
       Max VN number:   0.18E-01 at (10,2,1)
       Mesh    5
       Max CFL number:  0.24E-01 at (2,8,3)
       Max divergence:  0.13E-05 at (5,7,2)
       Min divergence: -0.11E-05 at (6,5,19)
       Max VN number:   0.18E-01 at (7,2,1)
       Mesh    6
       Max CFL number:  0.25E-01 at (8,9,4)
       Max divergence:  0.12E-05 at (4,6,2)
       Min divergence: -0.96E-06 at (2,8,14)
       Max VN number:   0.18E-01 at (2,9,1)
       Mesh    7
       Max CFL number:  0.24E-01 at (8,6,4)
       Max divergence:  0.17E-05 at (9,8,2)
       Min divergence: -0.10E-05 at (3,7,17)
       Max VN number:   0.18E-01 at (9,5,1)
       Mesh    8
       Max CFL number:  0.24E-01 at (2,4,15)
       Max divergence:  0.15E-05 at (2,8,2)
       Min divergence: -0.11E-05 at (2,3,7)
       Max VN number:   0.23E-01 at (5,7,1)
       Mesh    9
       Max CFL number:  0.26E-01 at (4,9,18)
       Max divergence:  0.13E-05 at (6,1,2)
       Min divergence: -0.11E-05 at (9,2,18)
       Max VN number:   0.15E-01 at (4,2,14)
       Mesh   10
       Max CFL number:  0.23E-01 at (8,3,14)
       Max divergence:  0.15E-05 at (3,7,2)
       Min divergence: -0.10E-05 at (6,2,14)
       Max VN number:   0.14E-01 at (7,9,1)
       Mesh   11
       Max CFL number:  0.25E-01 at (8,4,3)
       Max divergence:  0.13E-05 at (9,1,2)
       Min divergence: -0.10E-05 at (5,2,11)
       Max VN number:   0.15E-01 at (2,8,13)
       Mesh   12
       Max CFL number:  0.26E-01 at (3,4,5)
       Max divergence:  0.14E-05 at (5,3,2)
       Min divergence: -0.11E-05 at (5,3,5)
       Max VN number:   0.22E-01 at (1,6,1)
       Mesh   13
       Max CFL number:  0.23E-01 at (2,8,16)
       Max divergence:  0.19E-05 at (4,4,2)
       Min divergence: -0.11E-05 at (9,5,4)
       Max VN number:   0.14E-01 at (5,5,2)
       Mesh   14
       Max CFL number:  0.24E-01 at (2,4,16)
       Max divergence:  0.15E-05 at (8,4,2)
       Min divergence: -0.12E-05 at (3,2,7)
       Max VN number:   0.15E-01 at (3,3,6)
       Mesh   15
       Max CFL number:  0.24E-01 at (3,6,8)
       Max divergence:  0.14E-05 at (4,6,2)
       Min divergence: -0.12E-05 at (7,9,6)
       Max VN number:   0.14E-01 at (3,8,4)
       Mesh   16
       Max CFL number:  0.23E-01 at (3,7,15)
       Max divergence:  0.14E-05 at (2,10,2)
       Min divergence: -0.11E-05 at (5,2,16)
       Max VN number:   0.18E-01 at (7,8,1)
 
       Time Step       30   December 16, 2024  16:12:04
       Step Size:    0.113E+00 s, Total Time:       3.39 s
       Pressure Iterations: 1
       Maximum Velocity Error:  0.90E-05 on Mesh 12 at (10,10,11)
       Maximum Pressure Error:  0.24E-07 on Mesh 12 at (8,2,20)
       ---------------------------------------------------------------
       Mesh    1
       Max CFL number:  0.23E-01 at (2,2,16)
       Max divergence:  0.11E-05 at (3,8,17)
       Min divergence: -0.11E-05 at (2,2,17)
       Max VN number:   0.14E-01 at (3,8,12)
       Mesh    2
       Max CFL number:  0.23E-01 at (4,9,3)
       Max divergence:  0.15E-05 at (5,8,2)
       Min divergence: -0.11E-05 at (2,8,14)
       Max VN number:   0.18E-01 at (3,8,1)
       Mesh    3
       Max CFL number:  0.22E-01 at (9,9,18)
       Max divergence:  0.13E-05 at (7,2,2)
       Min divergence: -0.98E-06 at (5,8,13)
       Max VN number:   0.15E-01 at (3,1,1)
       Mesh    4
       Max CFL number:  0.24E-01 at (3,9,2)
       Max divergence:  0.14E-05 at (3,8,2)
       Min divergence: -0.11E-05 at (7,2,18)
       Max VN number:   0.18E-01 at (10,2,1)
       Mesh    5
       Max CFL number:  0.23E-01 at (2,8,3)
       Max divergence:  0.12E-05 at (5,7,2)
       Min divergence: -0.11E-05 at (6,5,19)
       Max VN number:   0.19E-01 at (7,2,1)
       Mesh    6
       Max CFL number:  0.24E-01 at (8,9,4)
       Max divergence:  0.12E-05 at (9,9,2)
       Min divergence: -0.92E-06 at (2,8,14)
       Max VN number:   0.17E-01 at (2,9,1)
       Mesh    7
       Max CFL number:  0.23E-01 at (8,6,4)
       Max divergence:  0.17E-05 at (9,8,2)
       Min divergence: -0.10E-05 at (3,7,16)
       Max VN number:   0.17E-01 at (9,5,1)
       Mesh    8
       Max CFL number:  0.23E-01 at (5,2,3)
       Max divergence:  0.15E-05 at (2,8,2)
       Min divergence: -0.10E-05 at (2,3,7)
       Max VN number:   0.24E-01 at (5,7,1)
       Mesh    9
       Max CFL number:  0.25E-01 at (4,9,18)
       Max divergence:  0.13E-05 at (6,1,2)
       Min divergence: -0.97E-06 at (9,2,18)
       Max VN number:   0.14E-01 at (4,2,14)
       Mesh   10
       Max CFL number:  0.23E-01 at (8,3,14)
       Max divergence:  0.15E-05 at (3,7,2)
       Min divergence: -0.93E-06 at (6,2,14)
       Max VN number:   0.14E-01 at (7,9,1)
       Mesh   11
       Max CFL number:  0.24E-01 at (8,4,3)
       Max divergence:  0.13E-05 at (9,1,2)
       Min divergence: -0.98E-06 at (8,2,3)
       Max VN number:   0.14E-01 at (2,8,13)
       Mesh   12
       Max CFL number:  0.24E-01 at (3,4,5)
       Max divergence:  0.14E-05 at (5,3,2)
       Min divergence: -0.10E-05 at (5,3,5)
       Max VN number:   0.22E-01 at (1,6,1)
       Mesh   13
       Max CFL number:  0.22E-01 at (2,8,16)
       Max divergence:  0.19E-05 at (4,4,2)
       Min divergence: -0.11E-05 at (9,5,4)
       Max VN number:   0.13E-01 at (5,5,2)
       Mesh   14
       Max CFL number:  0.22E-01 at (4,9,3)
       Max divergence:  0.15E-05 at (8,4,2)
       Min divergence: -0.11E-05 at (3,2,7)
       Max VN number:   0.15E-01 at (3,3,6)
       Mesh   15
       Max CFL number:  0.24E-01 at (3,6,8)
       Max divergence:  0.14E-05 at (4,6,2)
       Min divergence: -0.11E-05 at (7,6,3)
       Max VN number:   0.13E-01 at (3,8,4)
       Mesh   16
       Max CFL number:  0.22E-01 at (3,7,15)
       Max divergence:  0.14E-05 at (2,10,2)
       Min divergence: -0.11E-05 at (8,6,5)
       Max VN number:   0.18E-01 at (7,8,1)
 
       Time Step       40   December 16, 2024  16:12:07
       Step Size:    0.113E+00 s, Total Time:       4.52 s
       Pressure Iterations: 1
       Maximum Velocity Error:  0.88E-04 on Mesh 6 at (10,5,1)
       Maximum Pressure Error:  0.18E-03 on Mesh 6 at (5,6,1)
       ---------------------------------------------------------------
       Mesh    1
       Max CFL number:  0.23E-01 at (2,2,16)
       Max divergence:  0.11E-05 at (3,8,17)
       Min divergence: -0.10E-05 at (2,2,17)
       Max VN number:   0.14E-01 at (3,8,12)
       Mesh    2
       Max CFL number:  0.22E-01 at (4,9,3)
       Max divergence:  0.14E-05 at (5,8,2)
       Min divergence: -0.11E-05 at (2,8,14)
       Max VN number:   0.19E-01 at (3,8,1)
       Mesh    3
       Max CFL number:  0.21E-01 at (9,9,18)
       Max divergence:  0.12E-05 at (7,2,2)
       Min divergence: -0.96E-06 at (5,8,13)
       Max VN number:   0.15E-01 at (3,1,1)
       Mesh    4
       Max CFL number:  0.23E-01 at (3,9,2)
       Max divergence:  0.14E-05 at (3,8,2)
       Min divergence: -0.11E-05 at (3,4,16)
       Max VN number:   0.18E-01 at (10,2,1)
       Mesh    5
       Max CFL number:  0.22E-01 at (2,8,3)
       Max divergence:  0.12E-05 at (5,7,2)
       Min divergence: -0.11E-05 at (6,5,19)
       Max VN number:   0.19E-01 at (7,2,1)
       Mesh    6
       Max CFL number:  0.23E-01 at (8,9,4)
       Max divergence:  0.55E-03 at (10,4,1)
       Min divergence: -0.88E-06 at (2,8,14)
       Max VN number:   0.17E-01 at (2,9,1)
       Total Heat Release Rate:              0.020 kW
       Mesh    7
       Max CFL number:  0.22E-01 at (8,6,4)
       Max divergence:  0.16E-05 at (9,8,2)
       Min divergence: -0.10E-05 at (3,7,16)
       Max VN number:   0.17E-01 at (9,5,1)
       Mesh    8
       Max CFL number:  0.22E-01 at (5,2,3)
       Max divergence:  0.15E-05 at (2,8,2)
       Min divergence: -0.10E-05 at (2,3,7)
       Max VN number:   0.25E-01 at (5,7,1)
       Mesh    9
       Max CFL number:  0.24E-01 at (4,9,18)
       Max divergence:  0.12E-05 at (6,1,2)
       Min divergence: -0.87E-06 at (9,2,18)
       Max VN number:   0.14E-01 at (9,6,13)
       Mesh   10
       Max CFL number:  0.22E-01 at (8,3,14)
       Max divergence:  0.15E-05 at (3,7,2)
       Min divergence: -0.92E-06 at (6,2,14)
       Max VN number:   0.14E-01 at (7,9,1)
       Mesh   11
       Max CFL number:  0.23E-01 at (8,4,3)
       Max divergence:  0.13E-05 at (9,1,2)
       Min divergence: -0.95E-06 at (8,2,3)
       Max VN number:   0.14E-01 at (2,7,1)
       Mesh   12
       Max CFL number:  0.23E-01 at (3,4,5)
       Max divergence:  0.14E-05 at (5,3,2)
       Min divergence: -0.93E-06 at (5,3,5)
       Max VN number:   0.22E-01 at (1,6,1)
       Mesh   13
       Max CFL number:  0.21E-01 at (2,8,16)
       Max divergence:  0.19E-05 at (4,4,2)
       Min divergence: -0.10E-05 at (9,5,4)
       Max VN number:   0.13E-01 at (5,5,2)
       Mesh   14
       Max CFL number:  0.21E-01 at (4,9,3)
       Max divergence:  0.15E-05 at (8,4,2)
       Min divergence: -0.10E-05 at (3,2,7)
       Max VN number:   0.14E-01 at (3,3,6)
       Mesh   15
       Max CFL number:  0.23E-01 at (3,6,8)
       Max divergence:  0.14E-05 at (4,6,2)
       Min divergence: -0.11E-05 at (7,6,3)
       Max VN number:   0.14E-01 at (6,10,1)
       Mesh   16
       Max CFL number:  0.21E-01 at (3,7,15)
       Max divergence:  0.13E-05 at (2,10,2)
       Min divergence: -0.10E-05 at (8,6,5)
       Max VN number:   0.18E-01 at (7,8,1)
 
       Time Step       50   December 16, 2024  16:12:10
       Step Size:    0.113E+00 s, Total Time:       5.65 s
       Pressure Iterations: 1
       Maximum Velocity Error:  0.63E-02 on Mesh 6 at (10,5,1)
       Maximum Pressure Error:  0.13E+00 on Mesh 6 at (4,9,1)
       ---------------------------------------------------------------
       Mesh    1
       Max CFL number:  0.22E-01 at (2,2,16)
       Max divergence:  0.46E-05 at (10,10,1)
       Min divergence: -0.95E-06 at (2,2,17)
       Max VN number:   0.13E-01 at (3,8,12)
       Mesh    2
       Max CFL number:  0.34E-01 at (5,10,1)
       Max divergence:  0.10E-02 at (10,10,1)
       Min divergence: -0.10E-05 at (2,8,14)
       Max VN number:   0.18E-01 at (3,8,1)
       Mesh    3
       Max CFL number:  0.20E-01 at (9,9,18)
       Max divergence:  0.58E-05 at (1,10,1)
       Min divergence: -0.93E-06 at (5,8,13)
       Max VN number:   0.15E-01 at (3,1,1)
       Mesh    4
       Max CFL number:  0.22E-01 at (3,9,2)
       Max divergence:  0.14E-05 at (3,8,2)
       Min divergence: -0.11E-05 at (3,4,16)
       Max VN number:   0.18E-01 at (10,2,1)
       Mesh    5
       Max CFL number:  0.32E-01 at (10,5,1)
       Max divergence:  0.96E-03 at (10,1,1)
       Min divergence: -0.10E-05 at (6,5,19)
       Max VN number:   0.20E-01 at (7,2,1)
       Mesh    6
       Max CFL number:  0.70E-01 at (10,1,1)
       Max divergence:  0.68E-01 at (6,6,1)
       Min divergence: -0.79E-06 at (2,8,14)
       Max VN number:   0.21E-01 at (10,1,2)
       Total Heat Release Rate:              2.476 kW
       Radiation Loss to Boundaries:        -0.005 kW
       Mesh    7
       Max CFL number:  0.32E-01 at (1,6,1)
       Max divergence:  0.98E-03 at (1,1,1)
       Min divergence: -0.10E-05 at (3,7,16)
       Max VN number:   0.16E-01 at (9,5,1)
       Mesh    8
       Max CFL number:  0.21E-01 at (5,2,3)
       Max divergence:  0.15E-05 at (2,8,2)
       Min divergence: -0.10E-05 at (8,3,16)
       Max VN number:   0.24E-01 at (5,7,1)
       Mesh    9
       Max CFL number:  0.22E-01 at (4,9,18)
       Max divergence:  0.54E-05 at (10,1,1)
       Min divergence: -0.83E-06 at (5,6,10)
       Max VN number:   0.14E-01 at (9,6,13)
       Mesh   10
       Max CFL number:  0.33E-01 at (6,1,1)
       Max divergence:  0.95E-03 at (4,1,1)
       Min divergence: -0.89E-06 at (9,8,7)
       Max VN number:   0.14E-01 at (6,1,2)
       Mesh   11
       Max CFL number:  0.22E-01 at (8,4,3)
       Max divergence:  0.55E-05 at (1,1,1)
       Min divergence: -0.90E-06 at (8,2,3)
       Max VN number:   0.14E-01 at (2,7,1)
       Mesh   12
       Max CFL number:  0.22E-01 at (3,4,5)
       Max divergence:  0.13E-05 at (5,3,2)
       Min divergence: -0.91E-06 at (7,6,16)
       Max VN number:   0.21E-01 at (1,6,1)
       Mesh   13
       Max CFL number:  0.20E-01 at (2,8,16)
       Max divergence:  0.18E-05 at (4,4,2)
       Min divergence: -0.10E-05 at (9,5,4)
       Max VN number:   0.12E-01 at (5,5,2)
       Mesh   14
       Max CFL number:  0.20E-01 at (4,9,3)
       Max divergence:  0.14E-05 at (8,4,2)
       Min divergence: -0.97E-06 at (3,2,6)
       Max VN number:   0.13E-01 at (3,3,6)
       Mesh   15
       Max CFL number:  0.22E-01 at (3,6,8)
       Max divergence:  0.13E-05 at (4,6,2)
       Min divergence: -0.10E-05 at (7,6,3)
       Max VN number:   0.15E-01 at (6,10,1)
       Mesh   16
       Max CFL number:  0.21E-01 at (3,7,15)
       Max divergence:  0.13E-05 at (2,10,2)
       Min divergence: -0.10E-05 at (8,6,5)
       Max VN number:   0.18E-01 at (9,5,1)
 
       Time Step       60   December 16, 2024  16:12:13
       Step Size:    0.113E+00 s, Total Time:       6.77 s
       Pressure Iterations: 1
       Maximum Velocity Error:  0.89E-02 on Mesh 6 at (10,9,2)
       Maximum Pressure Error:  0.23E+00 on Mesh 6 at (7,8,1)
       ---------------------------------------------------------------
       Mesh    1
       Max CFL number:  0.69E-01 at (10,10,1)
       Max divergence:  0.49E-03 at (10,10,2)
       Min divergence: -0.92E-06 at (9,9,3)
       Max VN number:   0.15E-01 at (10,10,1)
       Mesh    2
       Max CFL number:  0.24E+00 at (7,10,1)
       Max divergence:  0.31E-02 at (3,10,1)
       Min divergence: -0.16E-05 at (6,8,3)
       Max VN number:   0.60E-01 at (4,10,2)
       Total Heat Release Rate:              0.004 kW
       Mesh    3
       Max CFL number:  0.67E-01 at (1,10,1)
       Max divergence:  0.52E-03 at (1,10,2)
       Min divergence: -0.10E-05 at (1,7,2)
       Max VN number:   0.17E-01 at (3,5,1)
       Mesh    4
       Max CFL number:  0.21E-01 at (3,9,2)
       Max divergence:  0.14E-05 at (3,8,2)
       Min divergence: -0.10E-05 at (3,4,16)
       Max VN number:   0.18E-01 at (10,2,1)
       Mesh    5
       Max CFL number:  0.24E+00 at (10,6,1)
       Max divergence:  0.27E-02 at (10,1,1)
       Min divergence: -0.16E-05 at (8,4,3)
       Max VN number:   0.61E-01 at (10,7,2)
       Total Heat Release Rate:              0.004 kW
       Mesh    6
       Max CFL number:  0.32E+00 at (9,9,1)
       Max divergence:  0.66E-01 at (7,7,1)
       Min divergence: -0.50E-03 at (10,1,3)
       Max VN number:   0.94E-01 at (10,1,2)
       Total Heat Release Rate:              2.473 kW
       Radiation Loss to Boundaries:        -0.014 kW
       Mesh    7
       Max CFL number:  0.24E+00 at (1,5,1)
       Max divergence:  0.31E-02 at (1,9,2)
       Min divergence: -0.12E-05 at (3,6,3)
       Max VN number:   0.64E-01 at (1,9,2)
       Total Heat Release Rate:              0.004 kW
       Mesh    8
       Max CFL number:  0.20E-01 at (10,5,8)
       Max divergence:  0.15E-05 at (2,8,2)
       Min divergence: -0.98E-06 at (8,3,16)
       Max VN number:   0.24E-01 at (5,7,1)
       Mesh    9
       Max CFL number:  0.69E-01 at (10,1,1)
       Max divergence:  0.54E-03 at (10,1,2)
       Min divergence: -0.89E-06 at (9,2,2)
       Max VN number:   0.16E-01 at (10,1,1)
       Mesh   10
       Max CFL number:  0.24E+00 at (7,1,1)
       Max divergence:  0.29E-02 at (9,1,2)
       Min divergence: -0.14E-05 at (3,3,3)
       Max VN number:   0.63E-01 at (6,1,2)
       Total Heat Release Rate:              0.004 kW
       Mesh   11
       Max CFL number:  0.70E-01 at (1,1,1)
       Max divergence:  0.53E-03 at (1,1,2)
       Min divergence: -0.13E-05 at (1,3,2)
       Max VN number:   0.15E-01 at (1,1,1)
       Mesh   12
       Max CFL number:  0.21E-01 at (3,4,5)
       Max divergence:  0.13E-05 at (5,3,2)
       Min divergence: -0.89E-06 at (7,6,16)
       Max VN number:   0.20E-01 at (1,6,1)
       Mesh   13
       Max CFL number:  0.20E-01 at (2,8,16)
       Max divergence:  0.18E-05 at (4,4,2)
       Min divergence: -0.99E-06 at (9,5,4)
       Max VN number:   0.12E-01 at (2,3,4)
       Mesh   14
       Max CFL number:  0.20E-01 at (4,9,3)
       Max divergence:  0.14E-05 at (8,4,2)
       Min divergence: -0.97E-06 at (3,2,6)
       Max VN number:   0.13E-01 at (3,3,6)
       Mesh   15
       Max CFL number:  0.21E-01 at (3,6,8)
       Max divergence:  0.13E-05 at (4,6,2)
       Min divergence: -0.10E-05 at (7,6,3)
       Max VN number:   0.15E-01 at (6,10,1)
       Mesh   16
       Max CFL number:  0.20E-01 at (3,7,15)
       Max divergence:  0.12E-05 at (2,10,2)
       Min divergence: -0.97E-06 at (8,6,5)
       Max VN number:   0.18E-01 at (9,5,1)
 
       Time Step       70   December 16, 2024  16:12:16
       Step Size:    0.113E+00 s, Total Time:       7.90 s
       Pressure Iterations: 1
       Maximum Velocity Error:  0.29E-01 on Mesh 6 at (10,3,3)
       Maximum Pressure Error:  0.15E+01 on Mesh 6 at (4,7,1)
       ---------------------------------------------------------------
       Mesh    1
       Max CFL number:  0.16E+00 at (10,10,2)
       Max divergence:  0.51E-03 at (10,10,3)
       Min divergence: -0.22E-05 at (9,9,3)
       Max VN number:   0.23E-01 at (10,10,2)
       Mesh    2
       Max CFL number:  0.38E+00 at (5,10,1)
       Max divergence:  0.27E-02 at (4,10,2)
       Min divergence: -0.16E-02 at (2,10,3)
       Max VN number:   0.78E-01 at (3,10,2)
       Total Heat Release Rate:              0.001 kW
       Mesh    3
       Max CFL number:  0.16E+00 at (1,10,2)
       Max divergence:  0.48E-03 at (1,10,3)
       Min divergence: -0.23E-05 at (3,10,3)
       Max VN number:   0.28E-01 at (3,5,1)
       Mesh    4
       Max CFL number:  0.20E-01 at (3,9,2)
       Max divergence:  0.14E-05 at (3,8,2)
       Min divergence: -0.10E-05 at (3,4,16)
       Max VN number:   0.17E-01 at (10,2,1)
       Mesh    5
       Max CFL number:  0.39E+00 at (10,5,1)
       Max divergence:  0.37E-02 at (10,7,3)
       Min divergence: -0.80E-03 at (10,4,3)
       Max VN number:   0.76E-01 at (10,6,1)
       Total Heat Release Rate:              0.001 kW
       Mesh    6
       Max CFL number:  0.72E+00 at (3,8,1)
       Max divergence:  0.92E-01 at (5,9,1)
       Min divergence: -0.76E-01 at (4,6,3)
       Max VN number:   0.25E+00 at (7,3,3)
       Total Heat Release Rate:              2.482 kW
       Radiation Loss to Boundaries:        -0.022 kW
       Mesh    7
       Max CFL number:  0.39E+00 at (1,4,1)
       Max divergence:  0.28E-02 at (1,4,2)
       Min divergence: -0.80E-03 at (1,3,3)
       Max VN number:   0.79E-01 at (1,9,2)
       Total Heat Release Rate:              0.001 kW
       Mesh    8
       Max CFL number:  0.20E-01 at (2,8,2)
       Max divergence:  0.15E-05 at (2,8,2)
       Min divergence: -0.99E-06 at (2,3,7)
       Max VN number:   0.24E-01 at (5,7,1)
       Mesh    9
       Max CFL number:  0.16E+00 at (10,1,2)
       Max divergence:  0.50E-03 at (10,1,3)
       Min divergence: -0.22E-05 at (10,3,3)
       Max VN number:   0.25E-01 at (10,1,2)
       Mesh   10
       Max CFL number:  0.39E+00 at (6,1,1)
       Max divergence:  0.32E-02 at (6,1,3)
       Min divergence: -0.83E-03 at (7,1,3)
       Max VN number:   0.80E-01 at (9,1,2)
       Total Heat Release Rate:              0.001 kW
       Mesh   11
       Max CFL number:  0.16E+00 at (1,1,2)
       Max divergence:  0.42E-03 at (1,1,3)
       Min divergence: -0.24E-05 at (1,3,3)
       Max VN number:   0.25E-01 at (1,1,1)
       Mesh   12
       Max CFL number:  0.20E-01 at (6,3,15)
       Max divergence:  0.12E-05 at (5,3,2)
       Min divergence: -0.88E-06 at (7,6,16)
       Max VN number:   0.22E-01 at (1,6,1)
       Mesh   13
       Max CFL number:  0.19E-01 at (2,8,16)
       Max divergence:  0.17E-05 at (4,4,2)
       Min divergence: -0.97E-06 at (9,5,4)
       Max VN number:   0.13E-01 at (4,1,1)
       Mesh   14
       Max CFL number:  0.18E-01 at (2,3,7)
       Max divergence:  0.13E-05 at (8,4,2)
       Min divergence: -0.10E-05 at (3,2,6)
       Max VN number:   0.12E-01 at (3,3,6)
       Mesh   15
       Max CFL number:  0.21E-01 at (3,6,8)
       Max divergence:  0.12E-05 at (4,6,2)
       Min divergence: -0.97E-06 at (2,5,18)
       Max VN number:   0.14E-01 at (6,10,1)
       Mesh   16
       Max CFL number:  0.19E-01 at (3,4,5)
       Max divergence:  0.12E-05 at (2,10,2)
       Min divergence: -0.94E-06 at (8,6,5)
       Max VN number:   0.18E-01 at (9,5,1)
 
       Time Step       80   December 16, 2024  16:12:19
       Step Size:    0.795E-01 s, Total Time:       8.88 s
       Pressure Iterations: 1
       Maximum Velocity Error:  0.25E-01 on Mesh 7 at (0,5,4)
       Maximum Pressure Error:  0.14E+01 on Mesh 6 at (5,6,4)
       ---------------------------------------------------------------
[...]
       Radiation Loss to Boundaries:        -0.028 kW
       Mesh    7
       Max CFL number:  0.37E+00 at (1,5,10)
       Max divergence:  0.72E-02 at (1,4,10)
       Min divergence: -0.22E-01 at (1,5,10)
       Max VN number:   0.17E+00 at (1,5,9)
       Mesh    8
       Max CFL number:  0.19E-01 at (2,8,2)
       Max divergence:  0.11E-05 at (2,8,2)
       Min divergence: -0.16E-05 at (2,3,7)
       Max VN number:   0.89E-02 at (7,9,1)
       Mesh    9
       Max CFL number:  0.11E+00 at (10,1,6)
       Max divergence:  0.23E-02 at (10,1,9)
       Min divergence: -0.59E-05 at (9,2,8)
       Max VN number:   0.30E-01 at (10,1,2)
       Mesh   10
       Max CFL number:  0.25E+00 at (3,1,10)
       Max divergence:  0.69E-02 at (5,1,9)
       Min divergence: -0.71E-02 at (3,1,10)
       Max VN number:   0.72E-01 at (5,1,8)
       Mesh   11
       Max CFL number:  0.11E+00 at (1,1,5)
       Max divergence:  0.15E-02 at (1,1,10)
       Min divergence: -0.21E-03 at (1,1,9)
       Max VN number:   0.33E-01 at (1,1,2)
       Mesh   12
       Max CFL number:  0.17E-01 at (2,1,2)
       Max divergence:  0.10E-05 at (5,3,2)
       Min divergence: -0.12E-05 at (1,3,6)
       Max VN number:   0.91E-02 at (1,6,1)
       Mesh   13
       Max CFL number:  0.16E-01 at (10,2,1)
       Max divergence:  0.15E-05 at (4,4,2)
       Min divergence: -0.13E-05 at (8,1,8)
       Max VN number:   0.60E-02 at (2,3,4)
       Mesh   14
       Max CFL number:  0.19E-01 at (4,2,2)
       Max divergence:  0.11E-05 at (8,4,2)
       Min divergence: -0.16E-05 at (8,1,10)
       Max VN number:   0.69E-02 at (10,6,1)
       Mesh   15
       Max CFL number:  0.16E-01 at (2,1,2)
       Max divergence:  0.10E-05 at (4,6,2)
       Min divergence: -0.13E-05 at (1,1,9)
       Max VN number:   0.12E-01 at (7,8,1)
       Mesh   16
       Max CFL number:  0.11E-01 at (3,3,4)
       Max divergence:  0.11E-05 at (2,10,2)
       Min divergence: -0.89E-06 at (8,6,5)
       Max VN number:   0.69E-02 at (9,5,1)
 
       Time Step      200   December 16, 2024  16:12:54
       Step Size:    0.569E-01 s, Total Time:      15.51 s
       Pressure Iterations: 1
       Maximum Velocity Error:  0.13E-01 on Mesh 7 at (0,4,19)
       Maximum Pressure Error:  0.75E+00 on Mesh 6 at (5,5,17)
       ---------------------------------------------------------------
       Mesh    1
       Max CFL number:  0.90E-01 at (10,10,19)
       Max divergence:  0.57E-03 at (10,10,20)
       Min divergence: -0.26E-05 at (9,8,20)
       Max VN number:   0.31E-01 at (10,10,2)
       Mesh    2
       Max CFL number:  0.21E+00 at (4,10,20)
       Max divergence:  0.11E-02 at (10,10,2)
       Min divergence: -0.16E-02 at (2,10,20)
       Max VN number:   0.70E-01 at (5,8,19)
       Mesh    3
       Max CFL number:  0.78E-01 at (1,10,16)
       Max divergence:  0.38E-03 at (1,10,20)
       Min divergence: -0.48E-05 at (3,10,19)
       Max VN number:   0.34E-01 at (1,10,16)
       Mesh    4
       Max CFL number:  0.14E-01 at (2,8,2)
       Max divergence:  0.12E-05 at (3,8,2)
       Min divergence: -0.10E-05 at (1,10,19)
       Max VN number:   0.88E-02 at (8,5,1)
       Mesh    5
       Max CFL number:  0.14E+00 at (10,4,18)
       Max divergence:  0.98E-03 at (10,1,2)
       Min divergence: -0.26E-02 at (10,1,20)
       Max VN number:   0.64E-01 at (9,7,18)
       Mesh    6
       Max CFL number:  0.90E+00 at (6,5,18)
       Max divergence:  0.45E-01 at (4,5,5)
       Min divergence: -0.50E-01 at (5,6,6)
       Max VN number:   0.19E+00 at (6,5,14)
       Total Heat Release Rate:              0.915 kW
       Radiation Loss to Boundaries:        -0.024 kW
       Mesh    7
       Max CFL number:  0.22E+00 at (1,7,18)
       Max divergence:  0.12E-02 at (1,2,1)
       Min divergence: -0.90E-03 at (2,10,20)
       Max VN number:   0.58E-01 at (1,7,18)
       Mesh    8
       Max CFL number:  0.14E-01 at (3,2,1)
       Max divergence:  0.12E-05 at (1,8,2)
       Min divergence: -0.14E-05 at (1,5,19)
       Max VN number:   0.84E-02 at (8,3,1)
       Mesh    9
       Max CFL number:  0.75E-01 at (10,2,19)
       Max divergence:  0.15E-03 at (10,1,19)
       Min divergence: -0.28E-03 at (10,1,20)
       Max VN number:   0.30E-01 at (10,1,2)
       Mesh   10
       Max CFL number:  0.28E+00 at (8,1,19)
       Max divergence:  0.13E-02 at (10,1,2)
       Min divergence: -0.11E-02 at (8,1,20)
       Max VN number:   0.79E-01 at (7,1,20)
       Mesh   11
       Max CFL number:  0.16E+00 at (1,1,20)
       Max divergence:  0.39E-03 at (2,2,20)
       Min divergence: -0.62E-03 at (1,1,20)
       Max VN number:   0.49E-01 at (1,1,20)
       Mesh   12
       Max CFL number:  0.14E-01 at (3,4,3)
       Max divergence:  0.10E-05 at (10,9,2)
       Min divergence: -0.13E-05 at (1,1,19)
       Max VN number:   0.73E-02 at (5,2,1)
       Mesh   13
       Max CFL number:  0.12E-01 at (6,1,2)
       Max divergence:  0.10E-05 at (4,4,2)
       Min divergence: -0.89E-06 at (8,1,19)
       Max VN number:   0.58E-02 at (5,8,1)
       Mesh   14
       Max CFL number:  0.14E-01 at (4,1,2)
       Max divergence:  0.13E-05 at (8,3,2)
       Min divergence: -0.14E-05 at (8,1,19)
       Max VN number:   0.61E-02 at (8,3,1)
       Mesh   15
       Max CFL number:  0.14E-01 at (5,2,9)
       Max divergence:  0.96E-06 at (4,6,2)
       Min divergence: -0.11E-05 at (3,1,19)
       Max VN number:   0.71E-02 at (7,8,1)
       Mesh   16
       Max CFL number:  0.10E-01 at (3,3,4)
       Max divergence:  0.12E-05 at (2,10,2)
       Min divergence: -0.87E-06 at (2,2,19)
       Max VN number:   0.54E-02 at (9,5,1)
 
       Time Step      300   December 16, 2024  16:13:23
       Step Size:    0.728E-01 s, Total Time:      22.31 s
       Pressure Iterations: 1
       Maximum Velocity Error:  0.13E-01 on Mesh 6 at (10,5,18)
       Maximum Pressure Error:  0.34E+00 on Mesh 6 at (5,5,12)
       ---------------------------------------------------------------
       Mesh    1
       Max CFL number:  0.49E-01 at (10,10,2)
       Max divergence:  0.47E-04 at (10,10,2)
       Min divergence: -0.56E-05 at (9,10,17)
       Max VN number:   0.27E-01 at (10,10,2)
       Mesh    2
       Max CFL number:  0.96E-01 at (5,10,1)
       Max divergence:  0.78E-03 at (2,10,1)
       Min divergence: -0.59E-04 at (3,8,20)
       Max VN number:   0.44E-01 at (1,10,2)
       Mesh    3
       Max CFL number:  0.48E-01 at (1,10,2)
       Max divergence:  0.37E-04 at (1,10,1)
       Min divergence: -0.22E-05 at (1,8,16)
       Max VN number:   0.24E-01 at (1,10,2)
       Mesh    4
       Max CFL number:  0.12E-01 at (2,8,2)
       Max divergence:  0.83E-06 at (9,1,2)
       Min divergence: -0.80E-06 at (2,1,13)
       Max VN number:   0.87E-02 at (8,5,1)
       Mesh    5
       Max CFL number:  0.10E+00 at (10,4,1)
       Max divergence:  0.13E-02 at (10,5,1)
       Min divergence: -0.58E-04 at (10,1,20)
       Max VN number:   0.51E-01 at (9,5,1)
       Mesh    6
       Max CFL number:  0.92E+00 at (8,4,17)
       Max divergence:  0.26E-01 at (4,6,1)
       Min divergence: -0.16E-01 at (5,6,13)
       Max VN number:   0.25E+00 at (8,4,18)
       Total Heat Release Rate:              0.848 kW
       Radiation Loss to Boundaries:        -0.011 kW
       Mesh    7
       Max CFL number:  0.97E-01 at (1,2,1)
       Max divergence:  0.13E-02 at (1,7,1)
       Min divergence: -0.68E-04 at (1,1,20)
       Max VN number:   0.62E-01 at (2,5,1)
       Mesh    8
       Max CFL number:  0.14E-01 at (1,4,1)
       Max divergence:  0.13E-05 at (10,9,2)
       Min divergence: -0.95E-06 at (1,3,6)
       Max VN number:   0.15E-01 at (6,7,1)
       Mesh    9
       Max CFL number:  0.53E-01 at (10,1,2)
       Max divergence:  0.35E-04 at (10,1,1)
       Min divergence: -0.26E-05 at (9,1,19)
       Max VN number:   0.25E-01 at (10,1,2)
       Mesh   10
       Max CFL number:  0.10E+00 at (2,1,1)
       Max divergence:  0.93E-03 at (8,1,1)
       Min divergence: -0.30E-04 at (10,1,20)
       Max VN number:   0.70E-01 at (8,1,1)
       Mesh   11
       Max CFL number:  0.46E-01 at (1,1,2)
       Max divergence:  0.42E-04 at (1,1,2)
       Min divergence: -0.40E-04 at (1,1,20)
       Max VN number:   0.28E-01 at (1,1,2)
       Mesh   12
       Max CFL number:  0.12E-01 at (1,3,3)
       Max divergence:  0.91E-06 at (10,1,2)
       Min divergence: -0.71E-06 at (10,3,2)
       Max VN number:   0.11E-01 at (9,6,1)
       Mesh   13
       Max CFL number:  0.12E-01 at (8,5,9)
       Max divergence:  0.73E-06 at (9,3,2)
       Min divergence: -0.80E-06 at (8,10,4)
       Max VN number:   0.85E-02 at (9,8,1)
       Mesh   14
       Max CFL number:  0.14E-01 at (4,1,3)
       Max divergence:  0.12E-05 at (6,10,2)
       Min divergence: -0.84E-06 at (1,10,10)
       Max VN number:   0.13E-01 at (6,9,1)
       Mesh   15
       Max CFL number:  0.12E-01 at (5,2,9)
       Max divergence:  0.86E-06 at (3,10,7)
       Min divergence: -0.95E-06 at (5,10,7)
       Max VN number:   0.65E-02 at (4,8,1)
       Mesh   16
       Max CFL number:  0.10E-01 at (4,3,4)
       Max divergence:  0.97E-06 at (2,10,2)
       Min divergence: -0.71E-06 at (5,2,15)
       Max VN number:   0.77E-02 at (6,9,1)
 
       Time Step      400   December 16, 2024  16:13:52
       Step Size:    0.738E-01 s, Total Time:      29.65 s
       Pressure Iterations: 1
       Maximum Velocity Error:  0.49E-02 on Mesh 2 at (5,10,14)
       Maximum Pressure Error:  0.26E+00 on Mesh 6 at (5,4,17)
       ---------------------------------------------------------------
       Mesh    1
       Max CFL number:  0.47E-01 at (10,10,2)
       Max divergence:  0.43E-04 at (10,10,2)
       Min divergence: -0.24E-05 at (10,10,20)
       Max VN number:   0.31E-01 at (10,10,2)
       Mesh    2
       Max CFL number:  0.94E-01 at (7,10,1)
       Max divergence:  0.88E-03 at (8,10,1)
       Min divergence: -0.32E-05 at (1,8,19)
       Max VN number:   0.68E-01 at (8,10,1)
       Mesh    3
       Max CFL number:  0.50E-01 at (1,10,2)
       Max divergence:  0.40E-04 at (1,10,2)
       Min divergence: -0.50E-05 at (1,10,11)
       Max VN number:   0.29E-01 at (1,10,2)
       Mesh    4
       Max CFL number:  0.11E-01 at (2,1,5)
       Max divergence:  0.80E-06 at (1,6,2)
       Min divergence: -0.72E-06 at (10,9,3)
       Max VN number:   0.63E-02 at (2,3,1)
       Mesh    5
       Max CFL number:  0.12E+00 at (10,4,1)
       Max divergence:  0.70E-03 at (10,5,1)
       Min divergence: -0.10E-04 at (8,3,20)
       Max VN number:   0.36E-01 at (10,7,2)
       Mesh    6
       Max CFL number:  0.84E+00 at (5,5,19)
       Max divergence:  0.24E-01 at (6,5,1)
       Min divergence: -0.12E-01 at (5,4,16)
       Max VN number:   0.23E+00 at (4,5,18)
       Total Heat Release Rate:              0.848 kW
       Radiation Loss to Boundaries:        -0.010 kW
       Mesh    7
       Max CFL number:  0.13E+00 at (1,3,19)
       Max divergence:  0.71E-03 at (1,6,20)
       Min divergence: -0.24E-03 at (1,4,19)
       Max VN number:   0.57E-01 at (1,3,18)
       Mesh    8
       Max CFL number:  0.13E-01 at (1,3,5)
       Max divergence:  0.15E-05 at (10,9,2)
       Min divergence: -0.84E-06 at (3,8,19)
       Max VN number:   0.62E-02 at (5,2,1)
       Mesh    9
       Max CFL number:  0.46E-01 at (10,1,2)
       Max divergence:  0.49E-04 at (10,1,2)
       Min divergence: -0.19E-05 at (7,1,2)
       Max VN number:   0.30E-01 at (10,1,2)
       Mesh   10
       Max CFL number:  0.11E+00 at (7,1,1)
       Max divergence:  0.83E-03 at (9,1,1)
       Min divergence: -0.43E-05 at (1,1,19)
       Max VN number:   0.39E-01 at (1,1,2)
       Mesh   11
       Max CFL number:  0.43E-01 at (1,1,2)
       Max divergence:  0.62E-04 at (1,1,2)
       Min divergence: -0.19E-05 at (1,4,2)
       Max VN number:   0.30E-01 at (1,1,2)
       Mesh   12
       Max CFL number:  0.12E-01 at (1,1,3)
       Max divergence:  0.83E-06 at (10,1,2)
       Min divergence: -0.87E-06 at (1,1,19)
       Max VN number:   0.11E-01 at (9,6,1)
       Mesh   13
       Max CFL number:  0.11E-01 at (9,1,9)
       Max divergence:  0.84E-06 at (3,2,2)
       Min divergence: -0.78E-06 at (8,10,3)
       Max VN number:   0.70E-02 at (8,4,1)
       Mesh   14
       Max CFL number:  0.13E-01 at (1,2,6)
       Max divergence:  0.13E-05 at (6,10,2)
       Min divergence: -0.84E-06 at (7,10,4)
       Max VN number:   0.11E-01 at (3,9,1)
       Mesh   15
       Max CFL number:  0.11E-01 at (4,1,6)
       Max divergence:  0.86E-06 at (3,10,7)
       Min divergence: -0.92E-06 at (5,10,7)
       Max VN number:   0.68E-02 at (3,9,1)
       Mesh   16
       Max CFL number:  0.95E-02 at (4,3,4)
       Max divergence:  0.80E-06 at (2,10,3)
       Min divergence: -0.64E-06 at (1,4,18)
       Max VN number:   0.91E-02 at (6,9,1)
 
       Time Step      500   December 16, 2024  16:14:21
       Step Size:    0.113E+00 s, Total Time:      38.73 s
       Pressure Iterations: 1
       Maximum Velocity Error:  0.13E-02 on Mesh 11 at (0,1,1)
       Maximum Pressure Error:  0.21E-02 on Mesh 6 at (4,4,17)
       ---------------------------------------------------------------
       Mesh    1
       Max CFL number:  0.39E-01 at (7,10,20)
       Max divergence:  0.27E-05 at (10,10,5)
       Min divergence: -0.16E-05 at (1,9,4)
       Max VN number:   0.27E-01 at (10,10,5)
       Mesh    2
       Max CFL number:  0.71E-01 at (4,10,9)
       Max divergence:  0.65E-04 at (4,10,13)
       Min divergence: -0.20E-05 at (2,10,1)
       Max VN number:   0.35E-01 at (6,9,1)
       Mesh    3
       Max CFL number:  0.33E-01 at (1,2,10)
       Max divergence:  0.31E-05 at (1,10,2)
       Min divergence: -0.30E-05 at (1,10,11)
       Max VN number:   0.22E-01 at (1,10,3)
       Mesh    4
       Max CFL number:  0.18E-01 at (1,1,2)
       Max divergence:  0.77E-06 at (10,8,2)
       Min divergence: -0.63E-06 at (10,9,3)
       Max VN number:   0.80E-02 at (7,5,1)
       Mesh    5
       Max CFL number:  0.61E-01 at (10,6,18)
       Max divergence:  0.12E-04 at (10,6,16)
       Min divergence: -0.21E-05 at (3,7,3)
       Max VN number:   0.36E-01 at (5,7,1)
       Mesh    6
       Max CFL number:  0.49E+00 at (5,3,19)
       Max divergence:  0.53E-03 at (6,8,19)
       Min divergence: -0.50E-03 at (5,8,19)
       Max VN number:   0.13E+00 at (5,3,18)
       Radiation Loss to Boundaries:        -0.001 kW
       Mesh    7
       Max CFL number:  0.10E+00 at (1,8,18)
       Max divergence:  0.28E-04 at (1,7,19)
       Min divergence: -0.63E-05 at (1,2,13)
       Max VN number:   0.99E-01 at (1,5,1)
       Mesh    8
       Max CFL number:  0.17E-01 at (1,6,20)
       Max divergence:  0.15E-05 at (10,9,2)
       Min divergence: -0.68E-06 at (3,5,19)
       Max VN number:   0.15E-01 at (3,8,1)
       Mesh    9
       Max CFL number:  0.32E-01 at (9,2,3)
       Max divergence:  0.28E-05 at (10,1,2)
       Min divergence: -0.12E-05 at (1,6,11)
       Max VN number:   0.24E-01 at (1,1,1)
       Mesh   10
       Max CFL number:  0.92E-01 at (7,1,19)
       Max divergence:  0.22E-04 at (6,1,20)
       Min divergence: -0.55E-05 at (8,1,17)
       Max VN number:   0.51E-01 at (7,1,17)
       Mesh   11
       Max CFL number:  0.36E-01 at (2,1,1)
       Max divergence:  0.26E-05 at (1,1,6)
       Min divergence: -0.14E-05 at (2,1,2)
       Max VN number:   0.24E-01 at (1,1,6)
       Mesh   12
       Max CFL number:  0.14E-01 at (10,3,2)
       Max divergence:  0.75E-06 at (10,2,9)
       Min divergence: -0.64E-06 at (1,1,19)
       Max VN number:   0.13E-01 at (9,6,1)
       Mesh   13
       Max CFL number:  0.14E-01 at (1,1,7)
       Max divergence:  0.77E-06 at (9,10,4)
       Min divergence: -0.71E-06 at (8,10,3)
       Max VN number:   0.16E-01 at (4,2,1)
       Mesh   14
       Max CFL number:  0.20E-01 at (6,1,20)
       Max divergence:  0.11E-05 at (6,10,2)
       Min divergence: -0.81E-06 at (7,10,4)
       Max VN number:   0.14E-01 at (3,9,1)
       Mesh   15
       Max CFL number:  0.16E-01 at (4,10,6)
       Max divergence:  0.70E-06 at (7,10,9)
       Min divergence: -0.76E-06 at (5,10,7)
       Max VN number:   0.10E-01 at (3,9,1)
       Mesh   16
       Max CFL number:  0.12E-01 at (2,3,8)
       Max divergence:  0.68E-06 at (2,10,3)
       Min divergence: -0.55E-06 at (10,2,4)
       Max VN number:   0.14E-01 at (6,9,1)
 
       Time Step      556   December 16, 2024  16:14:37
       Step Size:    0.647E-01 s, Total Time:      45.00 s
       Pressure Iterations: 1
       Maximum Velocity Error:  0.47E-03 on Mesh 2 at (4,10,19)
       Maximum Pressure Error:  0.75E-04 on Mesh 6 at (5,4,20)
       ---------------------------------------------------------------
       Mesh    1
       Max CFL number:  0.15E-01 at (7,10,20)
       Max divergence:  0.16E-05 at (10,10,7)
       Min divergence: -0.13E-05 at (7,1,5)
       Max VN number:   0.14E-01 at (10,1,1)
       Mesh    2
       Max CFL number:  0.41E-01 at (4,10,19)
       Max divergence:  0.39E-04 at (4,10,20)
       Min divergence: -0.24E-04 at (4,10,17)
       Max VN number:   0.20E-01 at (6,10,1)
       Mesh    3
       Max CFL number:  0.18E-01 at (5,1,1)
       Max divergence:  0.19E-05 at (1,10,9)
       Min divergence: -0.18E-05 at (2,10,11)
       Max VN number:   0.82E-02 at (1,10,5)
       Mesh    4
       Max CFL number:  0.10E-01 at (1,1,2)
       Max divergence:  0.75E-06 at (10,8,2)
       Min divergence: -0.58E-06 at (1,1,2)
       Max VN number:   0.59E-02 at (4,8,1)
       Mesh    5
       Max CFL number:  0.28E-01 at (10,7,19)
       Max divergence:  0.73E-05 at (10,3,20)
       Min divergence: -0.16E-05 at (3,7,3)
       Max VN number:   0.15E-01 at (9,5,1)
       Mesh    6
       Max CFL number:  0.16E+00 at (5,4,20)
       Max divergence:  0.67E-04 at (6,3,16)
       Min divergence: -0.84E-04 at (5,3,18)
       Max VN number:   0.44E-01 at (10,5,1)
       Mesh    7
       Max CFL number:  0.38E-01 at (1,9,20)
       Max divergence:  0.79E-05 at (1,6,17)
       Min divergence: -0.57E-05 at (1,2,13)
       Max VN number:   0.16E-01 at (1,6,18)
       Mesh    8
       Max CFL number:  0.91E-02 at (1,6,20)
       Max divergence:  0.13E-05 at (10,9,2)
       Min divergence: -0.58E-06 at (10,8,7)
       Max VN number:   0.85E-02 at (5,3,1)
       Mesh    9
       Max CFL number:  0.14E-01 at (10,1,20)
       Max divergence:  0.17E-05 at (8,1,2)
       Min divergence: -0.12E-05 at (1,6,10)
       Max VN number:   0.12E-01 at (1,1,1)
       Mesh   10
       Max CFL number:  0.39E-01 at (6,2,18)
       Max divergence:  0.96E-05 at (7,1,9)
       Min divergence: -0.16E-05 at (10,1,10)
       Max VN number:   0.34E-01 at (5,1,1)
       Mesh   11
       Max CFL number:  0.14E-01 at (2,2,20)
       Max divergence:  0.19E-05 at (3,1,2)
       Min divergence: -0.94E-06 at (1,3,16)
       Max VN number:   0.10E-01 at (1,1,8)
       Mesh   12
       Max CFL number:  0.72E-02 at (10,3,2)
       Max divergence:  0.78E-06 at (10,2,2)
       Min divergence: -0.49E-06 at (10,7,17)
       Max VN number:   0.60E-02 at (9,6,1)
       Mesh   13
       Max CFL number:  0.73E-02 at (1,1,7)
       Max divergence:  0.78E-06 at (9,10,5)
       Min divergence: -0.71E-06 at (1,1,10)
       Max VN number:   0.70E-02 at (8,4,1)
       Mesh   14
       Max CFL number:  0.11E-01 at (6,1,20)
       Max divergence:  0.92E-06 at (6,9,2)
       Min divergence: -0.74E-06 at (7,10,4)
       Max VN number:   0.60E-02 at (3,9,1)
       Mesh   15
       Max CFL number:  0.79E-02 at (3,10,5)
       Max divergence:  0.61E-06 at (7,10,9)
       Min divergence: -0.72E-06 at (5,10,6)
       Max VN number:   0.47E-02 at (2,10,5)
       Mesh   16
       Max CFL number:  0.58E-02 at (10,1,5)
       Max divergence:  0.58E-06 at (2,10,4)
       Min divergence: -0.47E-06 at (8,1,6)
       Max VN number:   0.82E-02 at (6,9,1)
 


 Time Stepping Wall Clock Time (s):      162.744
 Total Elapsed Wall Clock Time (s):      169.491

STOP: FDS completed successfully (CHID: fixed_burner)
